<routes>
	<vType id="bus_bus" vClass="bus"/>
	<trip id="bus-0" type="bus_bus" depart="17" departLane="best" from="-182559" to="-182723"/>
	<trip id="bus-1" type="bus_bus" depart="41" departLane="best" from="-182707" to="-182653"/>
	<trip id="bus-2" type="bus_bus" depart="56" departLane="best" from="-183577" to="-182723"/>
	<trip id="bus-3" type="bus_bus" depart="97" departLane="best" from="-182559" to="-182723"/>
	<trip id="bus-4" type="bus_bus" depart="359" departLane="best" from="-182707" to="-182653"/>
	<trip id="bus-5" type="bus_bus" depart="363" departLane="best" from="-183577" to="-182723"/>
	<trip id="bus-6" type="bus_bus" depart="417" departLane="best" from="-182559" to="-182723"/>
	<trip id="bus-7" type="bus_bus" depart="502" departLane="best" from="-182707" to="-182653"/>
	<trip id="bus-8" type="bus_bus" depart="621" departLane="best" from="-182707" to="-182653"/>
	<trip id="bus-9" type="bus_bus" depart="642" departLane="best" from="-182707" to="-182653"/>
	<trip id="bus-10" type="bus_bus" depart="746" departLane="best" from="-182559" to="317209213"/>
	<trip id="bus-11" type="bus_bus" depart="785" departLane="best" from="-182559" to="-182723"/>
	<trip id="bus-12" type="bus_bus" depart="852" departLane="best" from="-182707" to="-182653"/>
	<trip id="bus-13" type="bus_bus" depart="1025" departLane="best" from="-182707" to="177513127#0"/>
	<trip id="bus-14" type="bus_bus" depart="1030" departLane="best" from="-182559" to="-182723"/>
	<trip id="bus-15" type="bus_bus" depart="1059" departLane="best" from="-182559" to="-182723"/>
	<trip id="bus-16" type="bus_bus" depart="1186" departLane="best" from="-182559" to="317209213"/>
	<trip id="bus-17" type="bus_bus" depart="1387" departLane="best" from="-183577" to="-182723"/>
	<trip id="bus-18" type="bus_bus" depart="1401" departLane="best" from="-183577" to="-182723"/>
	<trip id="bus-19" type="bus_bus" depart="1699" departLane="best" from="-182707" to="177513127#0"/>
	<trip id="bus-20" type="bus_bus" depart="1867" departLane="best" from="317217122#0" to="177513127#0"/>
	<trip id="bus-21" type="bus_bus" depart="1867" departLane="best" from="-182559" to="-182723"/>
	<trip id="bus-22" type="bus_bus" depart="1887" departLane="best" from="-182559" to="-182723"/>
	<trip id="bus-23" type="bus_bus" depart="1928" departLane="best" from="-182707" to="-182653"/>
	<trip id="bus-24" type="bus_bus" depart="1956" departLane="best" from="-183577" to="317209213"/>
	<trip id="bus-25" type="bus_bus" depart="2056" departLane="best" from="-182559" to="-182723"/>
	<trip id="bus-26" type="bus_bus" depart="2067" departLane="best" from="-182707" to="177513127#0"/>
	<trip id="bus-27" type="bus_bus" depart="2151" departLane="best" from="-182559" to="-182723"/>
	<trip id="bus-28" type="bus_bus" depart="2190" departLane="best" from="-183577" to="-182723"/>
	<trip id="bus-29" type="bus_bus" depart="2285" departLane="best" from="-182707" to="-182653"/>
	<trip id="bus-30" type="bus_bus" depart="2425" departLane="best" from="-183577" to="317209213"/>
	<trip id="bus-31" type="bus_bus" depart="2432" departLane="best" from="-182707" to="-182653"/>
	<trip id="bus-32" type="bus_bus" depart="2451" departLane="best" from="-182707" to="-182653"/>
	<trip id="bus-33" type="bus_bus" depart="2615" departLane="best" from="-182707" to="177513127#0"/>
	<trip id="bus-34" type="bus_bus" depart="2625" departLane="best" from="-182707" to="-182653"/>
	<trip id="bus-35" type="bus_bus" depart="2652" departLane="best" from="-182559" to="-182723"/>
	<trip id="bus-36" type="bus_bus" depart="2830" departLane="best" from="-182559" to="-182723"/>
	<trip id="bus-37" type="bus_bus" depart="2876" departLane="best" from="-182559" to="-182723"/>
	<trip id="bus-38" type="bus_bus" depart="2930" departLane="best" from="-182559" to="-182723"/>
	<trip id="bus-39" type="bus_bus" depart="2963" departLane="best" from="-182559" to="-182723"/>
	<trip id="bus-40" type="bus_bus" depart="2977" departLane="best" from="-182707" to="-182653"/>
	<trip id="bus-41" type="bus_bus" depart="3009" departLane="best" from="-182707" to="-182653"/>
	<trip id="bus-42" type="bus_bus" depart="3014" departLane="best" from="-182707" to="-182653"/>
	<trip id="bus-43" type="bus_bus" depart="3070" departLane="best" from="-182707" to="-182653"/>
	<trip id="bus-44" type="bus_bus" depart="3180" departLane="best" from="-183577" to="-182723"/>
	<trip id="bus-45" type="bus_bus" depart="3255" departLane="best" from="-182707" to="-182653"/>
	<trip id="bus-46" type="bus_bus" depart="3398" departLane="best" from="-182559" to="-182723"/>
	<trip id="bus-47" type="bus_bus" depart="3457" departLane="best" from="-182707" to="177513127#0"/>
	<trip id="bus-48" type="bus_bus" depart="3531" departLane="best" from="-182559" to="-182723"/>
</routes>
