<routes>
	<vType id="bus_bus" vClass="bus"/>
	<trip id="bus-0" type="bus_bus" depart="17" departLane="best" from="-182707" to="177513127#0"/>
	<trip id="bus-1" type="bus_bus" depart="38" departLane="best" from="-182707" to="-182653"/>
	<trip id="bus-2" type="bus_bus" depart="41" departLane="best" from="-182707" to="-182653"/>
	<trip id="bus-3" type="bus_bus" depart="56" departLane="best" from="-183577" to="-182723"/>
	<trip id="bus-4" type="bus_bus" depart="161" departLane="best" from="-182559" to="-182723"/>
	<trip id="bus-5" type="bus_bus" depart="166" departLane="best" from="-182559" to="-182723"/>
	<trip id="bus-6" type="bus_bus" depart="302" departLane="best" from="-182559" to="-182723"/>
	<trip id="bus-7" type="bus_bus" depart="332" departLane="best" from="-182559" to="-182723"/>
	<trip id="bus-8" type="bus_bus" depart="359" departLane="best" from="-182707" to="-182653"/>
	<trip id="bus-9" type="bus_bus" depart="363" departLane="best" from="-183577" to="-182723"/>
	<trip id="bus-10" type="bus_bus" depart="366" departLane="best" from="-183577" to="317209213"/>
	<trip id="bus-11" type="bus_bus" depart="366" departLane="best" from="-182559" to="-182723"/>
	<trip id="bus-12" type="bus_bus" depart="417" departLane="best" from="-182707" to="177513127#0"/>
	<trip id="bus-13" type="bus_bus" depart="427" departLane="best" from="-183577" to="317209213"/>
	<trip id="bus-14" type="bus_bus" depart="502" departLane="best" from="-182707" to="-182653"/>
	<trip id="bus-15" type="bus_bus" depart="585" departLane="best" from="-182559" to="-182723"/>
	<trip id="bus-16" type="bus_bus" depart="621" departLane="best" from="-182707" to="-182653"/>
	<trip id="bus-17" type="bus_bus" depart="635" departLane="best" from="-182559" to="-182723"/>
	<trip id="bus-18" type="bus_bus" depart="642" departLane="best" from="-182707" to="-182653"/>
	<trip id="bus-19" type="bus_bus" depart="728" departLane="best" from="-182559" to="-182723"/>
	<trip id="bus-20" type="bus_bus" depart="746" departLane="best" from="-182559" to="-182723"/>
	<trip id="bus-21" type="bus_bus" depart="803" departLane="best" from="-182707" to="-182653"/>
	<trip id="bus-22" type="bus_bus" depart="816" departLane="best" from="-182707" to="-182653"/>
	<trip id="bus-23" type="bus_bus" depart="839" departLane="best" from="-182559" to="-182723"/>
	<trip id="bus-24" type="bus_bus" depart="852" departLane="best" from="-182707" to="-182653"/>
	<trip id="bus-25" type="bus_bus" depart="968" departLane="best" from="-182707" to="-182653"/>
	<trip id="bus-26" type="bus_bus" depart="1024" departLane="best" from="-182559" to="-182723"/>
	<trip id="bus-27" type="bus_bus" depart="1025" departLane="best" from="-182707" to="317209213"/>
	<trip id="bus-28" type="bus_bus" depart="1055" departLane="best" from="-182559" to="-182723"/>
	<trip id="bus-29" type="bus_bus" depart="1122" departLane="best" from="-182707" to="-182653"/>
	<trip id="bus-30" type="bus_bus" depart="1140" departLane="best" from="-183577" to="-182723"/>
	<trip id="bus-31" type="bus_bus" depart="1162" departLane="best" from="-182559" to="-182723"/>
	<trip id="bus-32" type="bus_bus" depart="1186" departLane="best" from="-182559" to="-182723"/>
	<trip id="bus-33" type="bus_bus" depart="1243" departLane="best" from="-183577" to="-182723"/>
	<trip id="bus-34" type="bus_bus" depart="1387" departLane="best" from="-183577" to="-182723"/>
	<trip id="bus-35" type="bus_bus" depart="1401" departLane="best" from="-183577" to="-182723"/>
	<trip id="bus-36" type="bus_bus" depart="1516" departLane="best" from="-182559" to="-182723"/>
	<trip id="bus-37" type="bus_bus" depart="1566" departLane="best" from="317217122#0" to="177513127#0"/>
	<trip id="bus-38" type="bus_bus" depart="1634" departLane="best" from="-182559" to="-182723"/>
	<trip id="bus-39" type="bus_bus" depart="1699" departLane="best" from="-182707" to="317209213"/>
	<trip id="bus-40" type="bus_bus" depart="1740" departLane="best" from="-182707" to="-182653"/>
	<trip id="bus-41" type="bus_bus" depart="1764" departLane="best" from="-182707" to="-182653"/>
	<trip id="bus-42" type="bus_bus" depart="1818" departLane="best" from="-182707" to="-182653"/>
	<trip id="bus-43" type="bus_bus" depart="1867" departLane="best" from="317217122#0" to="177513127#0"/>
	<trip id="bus-44" type="bus_bus" depart="1867" departLane="best" from="-182707" to="177513127#0"/>
	<trip id="bus-45" type="bus_bus" depart="1887" departLane="best" from="-182707" to="177513127#0"/>
	<trip id="bus-46" type="bus_bus" depart="1909" departLane="best" from="-182559" to="-182723"/>
	<trip id="bus-47" type="bus_bus" depart="1928" departLane="best" from="-182707" to="-182653"/>
	<trip id="bus-48" type="bus_bus" depart="1932" departLane="best" from="-182559" to="-182723"/>
	<trip id="bus-49" type="bus_bus" depart="1952" departLane="best" from="-182559" to="-182723"/>
	<trip id="bus-50" type="bus_bus" depart="1956" departLane="best" from="-183577" to="317209213"/>
	<trip id="bus-51" type="bus_bus" depart="1972" departLane="best" from="-182559" to="-182723"/>
	<trip id="bus-52" type="bus_bus" depart="2067" departLane="best" from="-182707" to="317209213"/>
	<trip id="bus-53" type="bus_bus" depart="2151" departLane="best" from="-182707" to="177513127#0"/>
	<trip id="bus-54" type="bus_bus" depart="2190" departLane="best" from="-183577" to="-182723"/>
	<trip id="bus-55" type="bus_bus" depart="2224" departLane="best" from="-182559" to="-182723"/>
	<trip id="bus-56" type="bus_bus" depart="2285" departLane="best" from="-182707" to="-182653"/>
	<trip id="bus-57" type="bus_bus" depart="2425" departLane="best" from="-183577" to="317209213"/>
	<trip id="bus-58" type="bus_bus" depart="2432" departLane="best" from="-182707" to="-182653"/>
	<trip id="bus-59" type="bus_bus" depart="2451" departLane="best" from="-182707" to="-182653"/>
	<trip id="bus-60" type="bus_bus" depart="2477" departLane="best" from="-182707" to="-182653"/>
	<trip id="bus-61" type="bus_bus" depart="2513" departLane="best" from="-182559" to="-182723"/>
	<trip id="bus-62" type="bus_bus" depart="2533" departLane="best" from="-182559" to="-182723"/>
	<trip id="bus-63" type="bus_bus" depart="2544" departLane="best" from="-183577" to="317209213"/>
	<trip id="bus-64" type="bus_bus" depart="2598" departLane="best" from="-182559" to="-182723"/>
	<trip id="bus-65" type="bus_bus" depart="2624" departLane="best" from="-183577" to="-182723"/>
	<trip id="bus-66" type="bus_bus" depart="2624" departLane="best" from="-182707" to="-182653"/>
	<trip id="bus-67" type="bus_bus" depart="2625" departLane="best" from="-182707" to="-182653"/>
	<trip id="bus-68" type="bus_bus" depart="2652" departLane="best" from="-182707" to="177513127#0"/>
	<trip id="bus-69" type="bus_bus" depart="2715" departLane="best" from="-182707" to="-182653"/>
	<trip id="bus-70" type="bus_bus" depart="2719" departLane="best" from="-182707" to="-182653"/>
	<trip id="bus-71" type="bus_bus" depart="2733" departLane="best" from="-182707" to="-182653"/>
	<trip id="bus-72" type="bus_bus" depart="2766" departLane="best" from="-183577" to="-182723"/>
	<trip id="bus-73" type="bus_bus" depart="2793" departLane="best" from="-182707" to="-182653"/>
	<trip id="bus-74" type="bus_bus" depart="2805" departLane="best" from="-182559" to="-182723"/>
	<trip id="bus-75" type="bus_bus" depart="2810" departLane="best" from="-182559" to="-182723"/>
	<trip id="bus-76" type="bus_bus" depart="2819" departLane="best" from="-182559" to="-182723"/>
	<trip id="bus-77" type="bus_bus" depart="2869" departLane="best" from="-182559" to="-182723"/>
	<trip id="bus-78" type="bus_bus" depart="2880" departLane="best" from="-182559" to="-182723"/>
	<trip id="bus-79" type="bus_bus" depart="2915" departLane="best" from="-182707" to="-182653"/>
	<trip id="bus-80" type="bus_bus" depart="2960" departLane="best" from="-182559" to="-182723"/>
	<trip id="bus-81" type="bus_bus" depart="2973" departLane="best" from="-182559" to="-182723"/>
	<trip id="bus-82" type="bus_bus" depart="2977" departLane="best" from="-182707" to="-182653"/>
	<trip id="bus-83" type="bus_bus" depart="3009" departLane="best" from="-182707" to="-182653"/>
	<trip id="bus-84" type="bus_bus" depart="3014" departLane="best" from="-182707" to="-182653"/>
	<trip id="bus-85" type="bus_bus" depart="3070" departLane="best" from="-182707" to="-182653"/>
	<trip id="bus-86" type="bus_bus" depart="3073" departLane="best" from="-182559" to="-182723"/>
	<trip id="bus-87" type="bus_bus" depart="3168" departLane="best" from="-183577" to="317209213"/>
	<trip id="bus-88" type="bus_bus" depart="3180" departLane="best" from="-183577" to="-182723"/>
	<trip id="bus-89" type="bus_bus" depart="3183" departLane="best" from="-182707" to="-182653"/>
	<trip id="bus-90" type="bus_bus" depart="3253" departLane="best" from="-182559" to="-182723"/>
	<trip id="bus-91" type="bus_bus" depart="3255" departLane="best" from="-182707" to="-182653"/>
	<trip id="bus-92" type="bus_bus" depart="3289" departLane="best" from="-182707" to="-182653"/>
	<trip id="bus-93" type="bus_bus" depart="3292" departLane="best" from="-182559" to="-182723"/>
	<trip id="bus-94" type="bus_bus" depart="3316" departLane="best" from="-182559" to="-182723"/>
	<trip id="bus-95" type="bus_bus" depart="3322" departLane="best" from="-182707" to="-182653"/>
	<trip id="bus-96" type="bus_bus" depart="3335" departLane="best" from="-182559" to="-182723"/>
	<trip id="bus-97" type="bus_bus" depart="3351" departLane="best" from="-182559" to="-182723"/>
	<trip id="bus-98" type="bus_bus" depart="3376" departLane="best" from="-182559" to="-182723"/>
	<trip id="bus-99" type="bus_bus" depart="3382" departLane="best" from="-182559" to="-182723"/>
	<trip id="bus-100" type="bus_bus" depart="3398" departLane="best" from="-182707" to="177513127#0"/>
	<trip id="bus-101" type="bus_bus" depart="3420" departLane="best" from="-182559" to="-182723"/>
	<trip id="bus-102" type="bus_bus" depart="3424" departLane="best" from="-182559" to="-182723"/>
	<trip id="bus-103" type="bus_bus" depart="3427" departLane="best" from="-182707" to="-182653"/>
	<trip id="bus-104" type="bus_bus" depart="3428" departLane="best" from="-182559" to="-182723"/>
	<trip id="bus-105" type="bus_bus" depart="3511" departLane="best" from="-182707" to="-182653"/>
	<trip id="bus-106" type="bus_bus" depart="3557" departLane="best" from="-182559" to="-182723"/>
	<trip id="bus-107" type="bus_bus" depart="3591" departLane="best" from="-182707" to="-182653"/>
</routes>
