<configuration xmlns:xsi="http://www.w3.org/2001/XMLSchema-instance" xsi:noNamespaceSchemaLocation="http://sumo.dlr.de/xsd/sumoConfiguration.xsd">
     <input>
         <net-file value="tammsaare-sopruse.net.xml"/>
         <route-files value="vehicle-offpeak.trips.xml,buses-offpeak.trips.xml,pedestrians.trips.xml"/>
     </input>
 </configuration>