<routes>
	<person id="ped-0" depart="6">
		<walk from="-183577" to="317209213"/>
	</person>
	<person id="ped-1" depart="7">
		<walk from="-182559" to="-182723"/>
	</person>
	<person id="ped-2" depart="20">
		<walk from="-183577" to="317209213"/>
	</person>
	<person id="ped-3" depart="23">
		<walk from="317217122#0" to="177513127#0"/>
	</person>
	<person id="ped-4" depart="24">
		<walk from="-182707" to="177513127#0"/>
	</person>
	<person id="ped-5" depart="31">
		<walk from="-182707" to="-182653"/>
	</person>
	<person id="ped-6" depart="33">
		<walk from="317217122#0" to="177513127#0"/>
	</person>
	<person id="ped-7" depart="37">
		<walk from="-183577" to="-182723"/>
	</person>
	<person id="ped-8" depart="42">
		<walk from="-182559" to="-182723"/>
	</person>
	<person id="ped-9" depart="59">
		<walk from="-182559" to="-182723"/>
	</person>
	<person id="ped-10" depart="73">
		<walk from="317217122#0" to="177513127#0"/>
	</person>
	<person id="ped-11" depart="73">
		<walk from="-183577" to="-182723"/>
	</person>
	<person id="ped-12" depart="88">
		<walk from="317217122#0" to="177513127#0"/>
	</person>
	<person id="ped-13" depart="97">
		<walk from="-183577" to="317209213"/>
	</person>
	<person id="ped-14" depart="114">
		<walk from="-182559" to="-182723"/>
	</person>
	<person id="ped-15" depart="132">
		<walk from="317217122#0" to="177513127#0"/>
	</person>
	<person id="ped-16" depart="132">
		<walk from="-182707" to="-182653"/>
	</person>
	<person id="ped-17" depart="132">
		<walk from="-182707" to="177513127#0"/>
	</person>
	<person id="ped-18" depart="145">
		<walk from="-182707" to="177513127#0"/>
	</person>
	<person id="ped-19" depart="151">
		<walk from="-182707" to="177513127#0"/>
	</person>
	<person id="ped-20" depart="157">
		<walk from="-183577" to="317209213"/>
	</person>
	<person id="ped-21" depart="160">
		<walk from="-182707" to="-182653"/>
	</person>
	<person id="ped-22" depart="171">
		<walk from="-182559" to="-182723"/>
	</person>
	<person id="ped-23" depart="177">
		<walk from="-183577" to="317209213"/>
	</person>
	<person id="ped-24" depart="182">
		<walk from="-182559" to="-182723"/>
	</person>
	<person id="ped-25" depart="183">
		<walk from="-183577" to="317209213"/>
	</person>
	<person id="ped-26" depart="186">
		<walk from="-182559" to="177513127#0"/>
	</person>
	<person id="ped-27" depart="200">
		<walk from="-183577" to="317209213"/>
	</person>
	<person id="ped-28" depart="212">
		<walk from="-182559" to="177513127#0"/>
	</person>
	<person id="ped-29" depart="219">
		<walk from="-182559" to="317209213"/>
	</person>
	<person id="ped-30" depart="226">
		<walk from="-182707" to="-182653"/>
	</person>
	<person id="ped-31" depart="232">
		<walk from="317217122#0" to="177513127#0"/>
	</person>
	<person id="ped-32" depart="240">
		<walk from="-183577" to="317209213"/>
	</person>
	<person id="ped-33" depart="256">
		<walk from="-183577" to="-182653"/>
	</person>
	<person id="ped-34" depart="259">
		<walk from="-182707" to="-182653"/>
	</person>
	<person id="ped-35" depart="263">
		<walk from="317217122#0" to="177513127#0"/>
	</person>
	<person id="ped-36" depart="266">
		<walk from="-183577" to="317209213"/>
	</person>
	<person id="ped-37" depart="271">
		<walk from="-182559" to="177513127#0"/>
	</person>
	<person id="ped-38" depart="281">
		<walk from="317217122#0" to="-182653"/>
	</person>
	<person id="ped-39" depart="295">
		<walk from="317217122#0" to="177513127#0"/>
	</person>
	<person id="ped-40" depart="295">
		<walk from="-182707" to="177513127#0"/>
	</person>
	<person id="ped-41" depart="296">
		<walk from="317217122#0" to="177513127#0"/>
	</person>
	<person id="ped-42" depart="313">
		<walk from="317217122#0" to="-182653"/>
	</person>
	<person id="ped-43" depart="313">
		<walk from="-182559" to="-182723"/>
	</person>
	<person id="ped-44" depart="318">
		<walk from="-182559" to="177513127#0"/>
	</person>
	<person id="ped-45" depart="326">
		<walk from="-182559" to="-182723"/>
	</person>
	<person id="ped-46" depart="329">
		<walk from="-182559" to="-182723"/>
	</person>
	<person id="ped-47" depart="339">
		<walk from="317217122#0" to="177513127#0"/>
	</person>
	<person id="ped-48" depart="343">
		<walk from="-182559" to="-182723"/>
	</person>
	<person id="ped-49" depart="350">
		<walk from="317217122#0" to="177513127#0"/>
	</person>
	<person id="ped-50" depart="351">
		<walk from="-182707" to="-182653"/>
	</person>
	<person id="ped-51" depart="358">
		<walk from="317217122#0" to="177513127#0"/>
	</person>
	<person id="ped-52" depart="394">
		<walk from="317217122#0" to="177513127#0"/>
	</person>
	<person id="ped-53" depart="414">
		<walk from="-182707" to="177513127#0"/>
	</person>
	<person id="ped-54" depart="422">
		<walk from="317217122#0" to="177513127#0"/>
	</person>
	<person id="ped-55" depart="433">
		<walk from="-182707" to="177513127#0"/>
	</person>
	<person id="ped-56" depart="444">
		<walk from="317217122#0" to="177513127#0"/>
	</person>
	<person id="ped-57" depart="448">
		<walk from="-183577" to="-182723"/>
	</person>
	<person id="ped-58" depart="450">
		<walk from="-182559" to="-182723"/>
	</person>
	<person id="ped-59" depart="452">
		<walk from="-183577" to="-182723"/>
	</person>
	<person id="ped-60" depart="456">
		<walk from="-183577" to="-182723"/>
	</person>
	<person id="ped-61" depart="463">
		<walk from="-182707" to="177513127#0"/>
	</person>
	<person id="ped-62" depart="474">
		<walk from="-183577" to="-182723"/>
	</person>
	<person id="ped-63" depart="475">
		<walk from="317217122#0" to="177513127#0"/>
	</person>
	<person id="ped-64" depart="482">
		<walk from="317217122#0" to="177513127#0"/>
	</person>
	<person id="ped-65" depart="484">
		<walk from="-183577" to="-182653"/>
	</person>
	<person id="ped-66" depart="498">
		<walk from="-182559" to="177513127#0"/>
	</person>
	<person id="ped-67" depart="501">
		<walk from="-183577" to="-182723"/>
	</person>
	<person id="ped-68" depart="503">
		<walk from="-182559" to="-182723"/>
	</person>
	<person id="ped-69" depart="508">
		<walk from="-182559" to="-182723"/>
	</person>
	<person id="ped-70" depart="516">
		<walk from="-183577" to="317209213"/>
	</person>
	<person id="ped-71" depart="519">
		<walk from="-183577" to="317209213"/>
	</person>
	<person id="ped-72" depart="548">
		<walk from="-182707" to="-182653"/>
	</person>
	<person id="ped-73" depart="552">
		<walk from="-183577" to="-182723"/>
	</person>
	<person id="ped-74" depart="556">
		<walk from="-183577" to="317209213"/>
	</person>
	<person id="ped-75" depart="574">
		<walk from="317217122#0" to="177513127#0"/>
	</person>
	<person id="ped-76" depart="584">
		<walk from="-183577" to="317209213"/>
	</person>
	<person id="ped-77" depart="595">
		<walk from="-183577" to="317209213"/>
	</person>
	<person id="ped-78" depart="602">
		<walk from="-182559" to="-182723"/>
	</person>
	<person id="ped-79" depart="613">
		<walk from="317217122#0" to="-182653"/>
	</person>
	<person id="ped-80" depart="615">
		<walk from="-182707" to="177513127#0"/>
	</person>
	<person id="ped-81" depart="632">
		<walk from="-182707" to="-182653"/>
	</person>
	<person id="ped-82" depart="643">
		<walk from="-182559" to="-182723"/>
	</person>
	<person id="ped-83" depart="652">
		<walk from="-182559" to="177513127#0"/>
	</person>
	<person id="ped-84" depart="658">
		<walk from="-182707" to="-182653"/>
	</person>
	<person id="ped-85" depart="663">
		<walk from="-182707" to="177513127#0"/>
	</person>
	<person id="ped-86" depart="667">
		<walk from="317217122#0" to="177513127#0"/>
	</person>
	<person id="ped-87" depart="675">
		<walk from="-182559" to="-182723"/>
	</person>
	<person id="ped-88" depart="677">
		<walk from="-183577" to="-182653"/>
	</person>
	<person id="ped-89" depart="685">
		<walk from="317217122#0" to="-182723"/>
	</person>
	<person id="ped-90" depart="689">
		<walk from="-183577" to="-182723"/>
	</person>
	<person id="ped-91" depart="697">
		<walk from="-183577" to="-182723"/>
	</person>
	<person id="ped-92" depart="704">
		<walk from="-182559" to="177513127#0"/>
	</person>
	<person id="ped-93" depart="715">
		<walk from="-183577" to="317209213"/>
	</person>
	<person id="ped-94" depart="741">
		<walk from="-182707" to="-182653"/>
	</person>
	<person id="ped-95" depart="743">
		<walk from="-182707" to="317209213"/>
	</person>
	<person id="ped-96" depart="745">
		<walk from="-182707" to="-182653"/>
	</person>
	<person id="ped-97" depart="751">
		<walk from="317217122#0" to="177513127#0"/>
	</person>
	<person id="ped-98" depart="785">
		<walk from="-183577" to="-182723"/>
	</person>
	<person id="ped-99" depart="794">
		<walk from="-182707" to="-182653"/>
	</person>
	<person id="ped-100" depart="797">
		<walk from="-182559" to="-182723"/>
	</person>
	<person id="ped-101" depart="807">
		<walk from="-183577" to="317209213"/>
	</person>
	<person id="ped-102" depart="812">
		<walk from="-183577" to="317209213"/>
	</person>
	<person id="ped-103" depart="812">
		<walk from="-182559" to="177513127#0"/>
	</person>
	<person id="ped-104" depart="816">
		<walk from="-182559" to="317209213"/>
	</person>
	<person id="ped-105" depart="817">
		<walk from="317217122#0" to="177513127#0"/>
	</person>
	<person id="ped-106" depart="817">
		<walk from="317217122#0" to="-182723"/>
	</person>
	<person id="ped-107" depart="825">
		<walk from="-182559" to="177513127#0"/>
	</person>
	<person id="ped-108" depart="845">
		<walk from="-182707" to="177513127#0"/>
	</person>
	<person id="ped-109" depart="854">
		<walk from="-183577" to="-182723"/>
	</person>
	<person id="ped-110" depart="855">
		<walk from="-182559" to="317209213"/>
	</person>
	<person id="ped-111" depart="863">
		<walk from="317217122#0" to="-182723"/>
	</person>
	<person id="ped-112" depart="876">
		<walk from="317217122#0" to="177513127#0"/>
	</person>
	<person id="ped-113" depart="882">
		<walk from="317217122#0" to="177513127#0"/>
	</person>
	<person id="ped-114" depart="885">
		<walk from="-182707" to="177513127#0"/>
	</person>
	<person id="ped-115" depart="904">
		<walk from="-182707" to="317209213"/>
	</person>
	<person id="ped-116" depart="912">
		<walk from="317217122#0" to="177513127#0"/>
	</person>
	<person id="ped-117" depart="914">
		<walk from="-182559" to="177513127#0"/>
	</person>
	<person id="ped-118" depart="916">
		<walk from="-182559" to="-182723"/>
	</person>
	<person id="ped-119" depart="921">
		<walk from="317217122#0" to="177513127#0"/>
	</person>
	<person id="ped-120" depart="926">
		<walk from="-182559" to="-182723"/>
	</person>
	<person id="ped-121" depart="938">
		<walk from="-183577" to="317209213"/>
	</person>
	<person id="ped-122" depart="941">
		<walk from="-183577" to="-182723"/>
	</person>
	<person id="ped-123" depart="945">
		<walk from="-183577" to="317209213"/>
	</person>
	<person id="ped-124" depart="958">
		<walk from="-183577" to="317209213"/>
	</person>
	<person id="ped-125" depart="962">
		<walk from="-182707" to="-182653"/>
	</person>
	<person id="ped-126" depart="970">
		<walk from="-183577" to="-182723"/>
	</person>
	<person id="ped-127" depart="973">
		<walk from="-183577" to="-182723"/>
	</person>
	<person id="ped-128" depart="984">
		<walk from="-183577" to="-182723"/>
	</person>
	<person id="ped-129" depart="999">
		<walk from="-182559" to="177513127#0"/>
	</person>
	<person id="ped-130" depart="1021">
		<walk from="-183577" to="317209213"/>
	</person>
	<person id="ped-131" depart="1040">
		<walk from="-182707" to="-182653"/>
	</person>
	<person id="ped-132" depart="1041">
		<walk from="-182707" to="177513127#0"/>
	</person>
	<person id="ped-133" depart="1045">
		<walk from="-182559" to="-182723"/>
	</person>
	<person id="ped-134" depart="1050">
		<walk from="-183577" to="-182653"/>
	</person>
	<person id="ped-135" depart="1061">
		<walk from="317217122#0" to="177513127#0"/>
	</person>
	<person id="ped-136" depart="1063">
		<walk from="-182707" to="177513127#0"/>
	</person>
	<person id="ped-137" depart="1064">
		<walk from="317217122#0" to="177513127#0"/>
	</person>
	<person id="ped-138" depart="1072">
		<walk from="-182707" to="-182653"/>
	</person>
	<person id="ped-139" depart="1078">
		<walk from="317217122#0" to="177513127#0"/>
	</person>
	<person id="ped-140" depart="1080">
		<walk from="-183577" to="317209213"/>
	</person>
	<person id="ped-141" depart="1083">
		<walk from="-182559" to="177513127#0"/>
	</person>
	<person id="ped-142" depart="1097">
		<walk from="-183577" to="317209213"/>
	</person>
	<person id="ped-143" depart="1099">
		<walk from="-182559" to="317209213"/>
	</person>
	<person id="ped-144" depart="1108">
		<walk from="-182707" to="317209213"/>
	</person>
	<person id="ped-145" depart="1113">
		<walk from="317217122#0" to="-182653"/>
	</person>
	<person id="ped-146" depart="1128">
		<walk from="-183577" to="-182723"/>
	</person>
	<person id="ped-147" depart="1137">
		<walk from="317217122#0" to="177513127#0"/>
	</person>
	<person id="ped-148" depart="1144">
		<walk from="-183577" to="-182653"/>
	</person>
	<person id="ped-149" depart="1148">
		<walk from="-182707" to="177513127#0"/>
	</person>
	<person id="ped-150" depart="1153">
		<walk from="-182707" to="-182653"/>
	</person>
	<person id="ped-151" depart="1160">
		<walk from="-182707" to="317209213"/>
	</person>
	<person id="ped-152" depart="1167">
		<walk from="-183577" to="317209213"/>
	</person>
	<person id="ped-153" depart="1188">
		<walk from="317217122#0" to="177513127#0"/>
	</person>
	<person id="ped-154" depart="1189">
		<walk from="-182559" to="-182723"/>
	</person>
	<person id="ped-155" depart="1191">
		<walk from="-183577" to="-182653"/>
	</person>
	<person id="ped-156" depart="1195">
		<walk from="-182559" to="177513127#0"/>
	</person>
	<person id="ped-157" depart="1210">
		<walk from="-183577" to="317209213"/>
	</person>
	<person id="ped-158" depart="1210">
		<walk from="-182707" to="-182653"/>
	</person>
	<person id="ped-159" depart="1211">
		<walk from="317217122#0" to="177513127#0"/>
	</person>
	<person id="ped-160" depart="1211">
		<walk from="-182707" to="-182653"/>
	</person>
	<person id="ped-161" depart="1215">
		<walk from="317217122#0" to="177513127#0"/>
	</person>
	<person id="ped-162" depart="1218">
		<walk from="317217122#0" to="177513127#0"/>
	</person>
	<person id="ped-163" depart="1219">
		<walk from="-182707" to="-182653"/>
	</person>
	<person id="ped-164" depart="1229">
		<walk from="-182559" to="-182723"/>
	</person>
	<person id="ped-165" depart="1235">
		<walk from="-182707" to="-182653"/>
	</person>
	<person id="ped-166" depart="1237">
		<walk from="-183577" to="317209213"/>
	</person>
	<person id="ped-167" depart="1245">
		<walk from="-183577" to="317209213"/>
	</person>
	<person id="ped-168" depart="1258">
		<walk from="-183577" to="317209213"/>
	</person>
	<person id="ped-169" depart="1259">
		<walk from="317217122#0" to="177513127#0"/>
	</person>
	<person id="ped-170" depart="1260">
		<walk from="-183577" to="-182723"/>
	</person>
	<person id="ped-171" depart="1271">
		<walk from="317217122#0" to="177513127#0"/>
	</person>
	<person id="ped-172" depart="1275">
		<walk from="-182707" to="-182653"/>
	</person>
	<person id="ped-173" depart="1291">
		<walk from="317217122#0" to="177513127#0"/>
	</person>
	<person id="ped-174" depart="1295">
		<walk from="-183577" to="-182723"/>
	</person>
	<person id="ped-175" depart="1296">
		<walk from="-182707" to="177513127#0"/>
	</person>
	<person id="ped-176" depart="1302">
		<walk from="-182707" to="177513127#0"/>
	</person>
	<person id="ped-177" depart="1306">
		<walk from="-183577" to="317209213"/>
	</person>
	<person id="ped-178" depart="1316">
		<walk from="-182707" to="177513127#0"/>
	</person>
	<person id="ped-179" depart="1318">
		<walk from="-182559" to="317209213"/>
	</person>
	<person id="ped-180" depart="1325">
		<walk from="-182559" to="177513127#0"/>
	</person>
	<person id="ped-181" depart="1329">
		<walk from="317217122#0" to="177513127#0"/>
	</person>
	<person id="ped-182" depart="1333">
		<walk from="-182707" to="177513127#0"/>
	</person>
	<person id="ped-183" depart="1342">
		<walk from="-183577" to="317209213"/>
	</person>
	<person id="ped-184" depart="1343">
		<walk from="-183577" to="-182653"/>
	</person>
	<person id="ped-185" depart="1350">
		<walk from="-182707" to="-182653"/>
	</person>
	<person id="ped-186" depart="1354">
		<walk from="317217122#0" to="-182653"/>
	</person>
	<person id="ped-187" depart="1359">
		<walk from="-183577" to="-182723"/>
	</person>
	<person id="ped-188" depart="1384">
		<walk from="-183577" to="317209213"/>
	</person>
	<person id="ped-189" depart="1386">
		<walk from="317217122#0" to="-182653"/>
	</person>
	<person id="ped-190" depart="1388">
		<walk from="317217122#0" to="177513127#0"/>
	</person>
	<person id="ped-191" depart="1391">
		<walk from="-183577" to="-182723"/>
	</person>
	<person id="ped-192" depart="1392">
		<walk from="-182559" to="-182723"/>
	</person>
	<person id="ped-193" depart="1400">
		<walk from="-183577" to="317209213"/>
	</person>
	<person id="ped-194" depart="1424">
		<walk from="-183577" to="317209213"/>
	</person>
	<person id="ped-195" depart="1430">
		<walk from="317217122#0" to="177513127#0"/>
	</person>
	<person id="ped-196" depart="1435">
		<walk from="-183577" to="317209213"/>
	</person>
	<person id="ped-197" depart="1439">
		<walk from="-182559" to="177513127#0"/>
	</person>
	<person id="ped-198" depart="1440">
		<walk from="-182707" to="177513127#0"/>
	</person>
	<person id="ped-199" depart="1452">
		<walk from="-183577" to="317209213"/>
	</person>
	<person id="ped-200" depart="1461">
		<walk from="-182559" to="-182723"/>
	</person>
	<person id="ped-201" depart="1472">
		<walk from="317217122#0" to="177513127#0"/>
	</person>
	<person id="ped-202" depart="1473">
		<walk from="-183577" to="317209213"/>
	</person>
	<person id="ped-203" depart="1477">
		<walk from="-183577" to="-182723"/>
	</person>
	<person id="ped-204" depart="1480">
		<walk from="317217122#0" to="177513127#0"/>
	</person>
	<person id="ped-205" depart="1482">
		<walk from="-182707" to="-182653"/>
	</person>
	<person id="ped-206" depart="1492">
		<walk from="-183577" to="317209213"/>
	</person>
	<person id="ped-207" depart="1496">
		<walk from="-182707" to="177513127#0"/>
	</person>
	<person id="ped-208" depart="1498">
		<walk from="-183577" to="-182723"/>
	</person>
	<person id="ped-209" depart="1499">
		<walk from="-182707" to="-182653"/>
	</person>
	<person id="ped-210" depart="1500">
		<walk from="-183577" to="317209213"/>
	</person>
	<person id="ped-211" depart="1517">
		<walk from="-182559" to="-182723"/>
	</person>
	<person id="ped-212" depart="1521">
		<walk from="-182707" to="-182653"/>
	</person>
	<person id="ped-213" depart="1536">
		<walk from="-183577" to="317209213"/>
	</person>
	<person id="ped-214" depart="1538">
		<walk from="-182559" to="-182723"/>
	</person>
	<person id="ped-215" depart="1540">
		<walk from="-182559" to="177513127#0"/>
	</person>
	<person id="ped-216" depart="1548">
		<walk from="-182559" to="177513127#0"/>
	</person>
	<person id="ped-217" depart="1550">
		<walk from="317217122#0" to="177513127#0"/>
	</person>
	<person id="ped-218" depart="1556">
		<walk from="317217122#0" to="177513127#0"/>
	</person>
	<person id="ped-219" depart="1556">
		<walk from="-182707" to="317209213"/>
	</person>
	<person id="ped-220" depart="1561">
		<walk from="-182707" to="-182653"/>
	</person>
	<person id="ped-221" depart="1571">
		<walk from="-183577" to="317209213"/>
	</person>
	<person id="ped-222" depart="1576">
		<walk from="-182707" to="-182653"/>
	</person>
	<person id="ped-223" depart="1626">
		<walk from="-182707" to="-182653"/>
	</person>
	<person id="ped-224" depart="1627">
		<walk from="-183577" to="317209213"/>
	</person>
	<person id="ped-225" depart="1629">
		<walk from="-183577" to="317209213"/>
	</person>
	<person id="ped-226" depart="1631">
		<walk from="-183577" to="317209213"/>
	</person>
	<person id="ped-227" depart="1643">
		<walk from="317217122#0" to="177513127#0"/>
	</person>
	<person id="ped-228" depart="1647">
		<walk from="-182707" to="177513127#0"/>
	</person>
	<person id="ped-229" depart="1652">
		<walk from="-183577" to="-182723"/>
	</person>
	<person id="ped-230" depart="1671">
		<walk from="-182707" to="177513127#0"/>
	</person>
	<person id="ped-231" depart="1675">
		<walk from="-183577" to="-182723"/>
	</person>
	<person id="ped-232" depart="1675">
		<walk from="-182707" to="177513127#0"/>
	</person>
	<person id="ped-233" depart="1676">
		<walk from="-183577" to="317209213"/>
	</person>
	<person id="ped-234" depart="1681">
		<walk from="317217122#0" to="177513127#0"/>
	</person>
	<person id="ped-235" depart="1685">
		<walk from="-182707" to="177513127#0"/>
	</person>
	<person id="ped-236" depart="1688">
		<walk from="-182559" to="177513127#0"/>
	</person>
	<person id="ped-237" depart="1691">
		<walk from="-182707" to="-182653"/>
	</person>
	<person id="ped-238" depart="1691">
		<walk from="-182559" to="-182723"/>
	</person>
	<person id="ped-239" depart="1716">
		<walk from="-183577" to="317209213"/>
	</person>
	<person id="ped-240" depart="1726">
		<walk from="-182707" to="-182653"/>
	</person>
	<person id="ped-241" depart="1730">
		<walk from="317217122#0" to="177513127#0"/>
	</person>
	<person id="ped-242" depart="1737">
		<walk from="-182707" to="-182653"/>
	</person>
	<person id="ped-243" depart="1742">
		<walk from="-183577" to="317209213"/>
	</person>
	<person id="ped-244" depart="1742">
		<walk from="-182559" to="-182723"/>
	</person>
	<person id="ped-245" depart="1755">
		<walk from="-183577" to="317209213"/>
	</person>
	<person id="ped-246" depart="1758">
		<walk from="-182707" to="-182653"/>
	</person>
	<person id="ped-247" depart="1760">
		<walk from="-182707" to="317209213"/>
	</person>
	<person id="ped-248" depart="1762">
		<walk from="-183577" to="-182653"/>
	</person>
	<person id="ped-249" depart="1762">
		<walk from="-182559" to="-182723"/>
	</person>
	<person id="ped-250" depart="1800">
		<walk from="317217122#0" to="177513127#0"/>
	</person>
	<person id="ped-251" depart="1804">
		<walk from="-183577" to="-182723"/>
	</person>
	<person id="ped-252" depart="1805">
		<walk from="-183577" to="317209213"/>
	</person>
	<person id="ped-253" depart="1809">
		<walk from="-183577" to="317209213"/>
	</person>
	<person id="ped-254" depart="1812">
		<walk from="-182559" to="-182723"/>
	</person>
	<person id="ped-255" depart="1817">
		<walk from="-182707" to="-182653"/>
	</person>
	<person id="ped-256" depart="1822">
		<walk from="-182707" to="-182653"/>
	</person>
	<person id="ped-257" depart="1837">
		<walk from="-183577" to="-182723"/>
	</person>
	<person id="ped-258" depart="1841">
		<walk from="-183577" to="-182723"/>
	</person>
	<person id="ped-259" depart="1846">
		<walk from="-182707" to="-182653"/>
	</person>
	<person id="ped-260" depart="1847">
		<walk from="-182559" to="317209213"/>
	</person>
	<person id="ped-261" depart="1851">
		<walk from="-182707" to="-182653"/>
	</person>
	<person id="ped-262" depart="1858">
		<walk from="-183577" to="-182653"/>
	</person>
	<person id="ped-263" depart="1863">
		<walk from="-182707" to="-182653"/>
	</person>
	<person id="ped-264" depart="1892">
		<walk from="-182707" to="177513127#0"/>
	</person>
	<person id="ped-265" depart="1893">
		<walk from="317217122#0" to="-182653"/>
	</person>
	<person id="ped-266" depart="1902">
		<walk from="-183577" to="317209213"/>
	</person>
	<person id="ped-267" depart="1904">
		<walk from="-182559" to="177513127#0"/>
	</person>
	<person id="ped-268" depart="1910">
		<walk from="317217122#0" to="177513127#0"/>
	</person>
	<person id="ped-269" depart="1911">
		<walk from="-182559" to="317209213"/>
	</person>
	<person id="ped-270" depart="1920">
		<walk from="317217122#0" to="177513127#0"/>
	</person>
	<person id="ped-271" depart="1922">
		<walk from="-182559" to="-182723"/>
	</person>
	<person id="ped-272" depart="1937">
		<walk from="-182707" to="-182653"/>
	</person>
	<person id="ped-273" depart="1939">
		<walk from="-182707" to="-182653"/>
	</person>
	<person id="ped-274" depart="1948">
		<walk from="-182559" to="177513127#0"/>
	</person>
	<person id="ped-275" depart="1952">
		<walk from="-182559" to="317209213"/>
	</person>
	<person id="ped-276" depart="1958">
		<walk from="-182707" to="177513127#0"/>
	</person>
	<person id="ped-277" depart="1963">
		<walk from="-182707" to="-182653"/>
	</person>
	<person id="ped-278" depart="1967">
		<walk from="-182707" to="177513127#0"/>
	</person>
	<person id="ped-279" depart="1983">
		<walk from="317217122#0" to="177513127#0"/>
	</person>
	<person id="ped-280" depart="1986">
		<walk from="317217122#0" to="-182653"/>
	</person>
	<person id="ped-281" depart="1995">
		<walk from="-182559" to="-182723"/>
	</person>
	<person id="ped-282" depart="1998">
		<walk from="317217122#0" to="177513127#0"/>
	</person>
	<person id="ped-283" depart="2009">
		<walk from="-183577" to="317209213"/>
	</person>
	<person id="ped-284" depart="2019">
		<walk from="317217122#0" to="177513127#0"/>
	</person>
	<person id="ped-285" depart="2022">
		<walk from="-182707" to="-182653"/>
	</person>
	<person id="ped-286" depart="2041">
		<walk from="317217122#0" to="177513127#0"/>
	</person>
	<person id="ped-287" depart="2048">
		<walk from="-183577" to="-182653"/>
	</person>
	<person id="ped-288" depart="2048">
		<walk from="-182707" to="-182653"/>
	</person>
	<person id="ped-289" depart="2050">
		<walk from="-183577" to="317209213"/>
	</person>
	<person id="ped-290" depart="2057">
		<walk from="-183577" to="317209213"/>
	</person>
	<person id="ped-291" depart="2060">
		<walk from="317217122#0" to="177513127#0"/>
	</person>
	<person id="ped-292" depart="2081">
		<walk from="-182559" to="177513127#0"/>
	</person>
	<person id="ped-293" depart="2107">
		<walk from="-182707" to="-182653"/>
	</person>
	<person id="ped-294" depart="2116">
		<walk from="-183577" to="317209213"/>
	</person>
	<person id="ped-295" depart="2121">
		<walk from="-182559" to="177513127#0"/>
	</person>
	<person id="ped-296" depart="2130">
		<walk from="-182559" to="-182723"/>
	</person>
	<person id="ped-297" depart="2141">
		<walk from="-183577" to="317209213"/>
	</person>
	<person id="ped-298" depart="2154">
		<walk from="317217122#0" to="177513127#0"/>
	</person>
	<person id="ped-299" depart="2169">
		<walk from="-182559" to="-182723"/>
	</person>
	<person id="ped-300" depart="2171">
		<walk from="317217122#0" to="177513127#0"/>
	</person>
	<person id="ped-301" depart="2173">
		<walk from="-183577" to="317209213"/>
	</person>
	<person id="ped-302" depart="2181">
		<walk from="-183577" to="-182723"/>
	</person>
	<person id="ped-303" depart="2186">
		<walk from="317217122#0" to="177513127#0"/>
	</person>
	<person id="ped-304" depart="2186">
		<walk from="-182707" to="-182653"/>
	</person>
	<person id="ped-305" depart="2194">
		<walk from="-182559" to="-182723"/>
	</person>
	<person id="ped-306" depart="2198">
		<walk from="-182707" to="-182653"/>
	</person>
	<person id="ped-307" depart="2205">
		<walk from="317217122#0" to="-182653"/>
	</person>
	<person id="ped-308" depart="2205">
		<walk from="-182559" to="-182723"/>
	</person>
	<person id="ped-309" depart="2211">
		<walk from="-182707" to="-182653"/>
	</person>
	<person id="ped-310" depart="2215">
		<walk from="317217122#0" to="177513127#0"/>
	</person>
	<person id="ped-311" depart="2220">
		<walk from="-183577" to="317209213"/>
	</person>
	<person id="ped-312" depart="2225">
		<walk from="317217122#0" to="177513127#0"/>
	</person>
	<person id="ped-313" depart="2245">
		<walk from="-183577" to="-182723"/>
	</person>
	<person id="ped-314" depart="2252">
		<walk from="-182707" to="-182653"/>
	</person>
	<person id="ped-315" depart="2256">
		<walk from="-182707" to="-182653"/>
	</person>
	<person id="ped-316" depart="2276">
		<walk from="317217122#0" to="177513127#0"/>
	</person>
	<person id="ped-317" depart="2277">
		<walk from="-182707" to="-182653"/>
	</person>
	<person id="ped-318" depart="2277">
		<walk from="-182707" to="177513127#0"/>
	</person>
	<person id="ped-319" depart="2283">
		<walk from="-182559" to="-182723"/>
	</person>
	<person id="ped-320" depart="2292">
		<walk from="-183577" to="317209213"/>
	</person>
	<person id="ped-321" depart="2294">
		<walk from="-183577" to="-182723"/>
	</person>
	<person id="ped-322" depart="2295">
		<walk from="-182707" to="-182653"/>
	</person>
	<person id="ped-323" depart="2295">
		<walk from="-182707" to="317209213"/>
	</person>
	<person id="ped-324" depart="2317">
		<walk from="-182707" to="-182653"/>
	</person>
	<person id="ped-325" depart="2319">
		<walk from="-182707" to="-182653"/>
	</person>
	<person id="ped-326" depart="2323">
		<walk from="-182559" to="-182723"/>
	</person>
	<person id="ped-327" depart="2329">
		<walk from="-183577" to="317209213"/>
	</person>
	<person id="ped-328" depart="2335">
		<walk from="-182559" to="-182723"/>
	</person>
	<person id="ped-329" depart="2343">
		<walk from="-182707" to="-182653"/>
	</person>
	<person id="ped-330" depart="2365">
		<walk from="-182559" to="-182723"/>
	</person>
	<person id="ped-331" depart="2371">
		<walk from="-182559" to="177513127#0"/>
	</person>
	<person id="ped-332" depart="2373">
		<walk from="-182707" to="-182653"/>
	</person>
	<person id="ped-333" depart="2392">
		<walk from="-182559" to="-182723"/>
	</person>
	<person id="ped-334" depart="2393">
		<walk from="317217122#0" to="177513127#0"/>
	</person>
	<person id="ped-335" depart="2432">
		<walk from="-182559" to="177513127#0"/>
	</person>
	<person id="ped-336" depart="2434">
		<walk from="-182559" to="177513127#0"/>
	</person>
	<person id="ped-337" depart="2442">
		<walk from="-182559" to="-182723"/>
	</person>
	<person id="ped-338" depart="2445">
		<walk from="-182707" to="177513127#0"/>
	</person>
	<person id="ped-339" depart="2455">
		<walk from="317217122#0" to="177513127#0"/>
	</person>
	<person id="ped-340" depart="2460">
		<walk from="-182707" to="177513127#0"/>
	</person>