<?xml version="1.0" encoding="UTF-8"?>

<!-- generated on Sun Feb 28 18:08:40 2021 by Eclipse SUMO netedit Version 1.7.0
<configuration xmlns:xsi="http://www.w3.org/2001/XMLSchema-instance" xsi:noNamespaceSchemaLocation="http://sumo.dlr.de/xsd/netconvertConfiguration.xsd">

    <input>
        <sumo-net-file value="input/map/tammsaare-sopruse.net.xml"/>
    </input>

    <output>
        <output-file value="input/map/tammsaare-sopruse.net.xml"/>
    </output>

    <processing>
        <geometry.min-radius.fix.railways value="false"/>
        <geometry.max-grade.fix value="false"/>
        <offset.disable-normalization value="true"/>
        <lefthand value="false"/>
    </processing>

    <junctions>
        <no-internal-links value="false"/>
        <no-turnarounds value="true"/>
        <junctions.corner-detail value="5"/>
        <junctions.limit-turn-speed value="5.5"/>
        <rectangular-lane-cut value="false"/>
    </junctions>

    <pedestrian>
        <walkingareas value="true"/>
    </pedestrian>

    <report>
        <aggregate-warnings value="5"/>
    </report>

</configuration>
-->

<net version="1.6" junctionCornerDetail="5" walkingareas="true" limitTurnSpeed="5.50" xmlns:xsi="http://www.w3.org/2001/XMLSchema-instance" xsi:noNamespaceSchemaLocation="http://sumo.dlr.de/xsd/net_file.xsd">

    <location netOffset="-366401.94,-6586971.08" convBoundary="2862.48,262.99,3285.30,610.07" origBoundary="24.645568,59.401362,24.726644,59.422162" projParameter="+proj=utm +zone=35 +ellps=WGS84 +datum=WGS84 +units=m +no_defs"/>

    <type id="highway.bridleway" priority="1" numLanes="1" speed="2.78" allow="pedestrian" oneway="1" width="2.00"/>
    <type id="highway.bus_guideway" priority="1" numLanes="1" speed="27.78" allow="bus" oneway="1"/>
    <type id="highway.cycleway" priority="1" numLanes="1" speed="8.33" allow="bicycle" oneway="0" width="1.00"/>
    <type id="highway.footway" priority="1" numLanes="1" speed="2.78" allow="pedestrian" oneway="1" width="2.00"/>
    <type id="highway.ford" priority="1" numLanes="1" speed="2.78" allow="army" oneway="0"/>
    <type id="highway.living_street" priority="2" numLanes="1" speed="2.78" disallow="tram rail_urban rail rail_electric rail_fast ship" oneway="0"/>
    <type id="highway.motorway" priority="14" numLanes="2" speed="39.44" allow="private emergency authority army vip passenger hov taxi bus coach delivery truck trailer motorcycle evehicle custom1 custom2" oneway="1"/>
    <type id="highway.motorway_link" priority="9" numLanes="1" speed="22.22" allow="private emergency authority army vip passenger hov taxi bus coach delivery truck trailer motorcycle evehicle custom1 custom2" oneway="1"/>
    <type id="highway.path" priority="1" numLanes="1" speed="2.78" allow="pedestrian bicycle" oneway="1" width="2.00"/>
    <type id="highway.pedestrian" priority="1" numLanes="1" speed="2.78" allow="pedestrian" oneway="1" width="2.00"/>
    <type id="highway.primary" priority="12" numLanes="2" speed="27.78" disallow="tram rail_urban rail rail_electric rail_fast ship" oneway="0"/>
    <type id="highway.primary_link" priority="7" numLanes="1" speed="22.22" disallow="tram rail_urban rail rail_electric rail_fast ship" oneway="0"/>
    <type id="highway.raceway" priority="15" numLanes="2" speed="83.33" allow="vip" oneway="0"/>
    <type id="highway.residential" priority="3" numLanes="1" speed="13.89" disallow="tram rail_urban rail rail_electric rail_fast ship" oneway="0"/>
    <type id="highway.secondary" priority="11" numLanes="1" speed="27.78" disallow="tram rail_urban rail rail_electric rail_fast ship" oneway="0"/>
    <type id="highway.secondary_link" priority="6" numLanes="1" speed="22.22" disallow="tram rail_urban rail rail_electric rail_fast ship" oneway="0"/>
    <type id="highway.service" priority="1" numLanes="1" speed="5.56" allow="pedestrian delivery bicycle" oneway="0"/>
    <type id="highway.stairs" priority="1" numLanes="1" speed="1.39" allow="pedestrian" oneway="1" width="2.00"/>
    <type id="highway.step" priority="1" numLanes="1" speed="1.39" allow="pedestrian" oneway="1" width="2.00"/>
    <type id="highway.steps" priority="1" numLanes="1" speed="1.39" allow="pedestrian" oneway="1" width="2.00"/>
    <type id="highway.tertiary" priority="10" numLanes="1" speed="22.22" disallow="tram rail_urban rail rail_electric rail_fast ship" oneway="0"/>
    <type id="highway.tertiary_link" priority="5" numLanes="1" speed="22.22" disallow="tram rail_urban rail rail_electric rail_fast ship" oneway="0"/>
    <type id="highway.track" priority="1" numLanes="1" speed="5.56" allow="pedestrian motorcycle moped bicycle" oneway="0"/>
    <type id="highway.trunk" priority="13" numLanes="2" speed="27.78" disallow="pedestrian bicycle tram rail_urban rail rail_electric rail_fast ship" oneway="0"/>
    <type id="highway.trunk_link" priority="8" numLanes="1" speed="22.22" disallow="pedestrian bicycle tram rail_urban rail rail_electric rail_fast ship" oneway="0"/>
    <type id="highway.unclassified" priority="4" numLanes="1" speed="13.89" disallow="tram rail_urban rail rail_electric rail_fast ship" oneway="0"/>
    <type id="highway.unsurfaced" priority="1" numLanes="1" speed="8.33" disallow="tram rail_urban rail rail_electric rail_fast ship" oneway="0"/>
    <type id="railway.highspeed" priority="21" numLanes="1" speed="69.44" allow="rail_fast" oneway="1"/>
    <type id="railway.light_rail" priority="19" numLanes="1" speed="27.78" allow="rail_urban" oneway="1"/>
    <type id="railway.preserved" priority="16" numLanes="1" speed="27.78" allow="rail" oneway="1"/>
    <type id="railway.rail" priority="20" numLanes="1" speed="44.44" allow="rail" oneway="1"/>
    <type id="railway.subway" priority="18" numLanes="1" speed="27.78" allow="rail_urban" oneway="1"/>
    <type id="railway.tram" priority="17" numLanes="1" speed="13.89" allow="tram" oneway="1"/>

    <edge id=":-386543_0" function="internal">
        <lane id=":-386543_0_0" index="0" disallow="pedestrian tram rail_urban rail rail_electric rail_fast ship" speed="13.89" length="8.40" shape="3032.44,476.75 3030.50,478.31 3029.67,479.99 3028.85,481.68 3026.95,483.29"/>
        <lane id=":-386543_0_1" index="1" disallow="pedestrian tram rail_urban rail rail_electric rail_fast ship" speed="13.89" length="8.40" shape="3032.44,476.75 3025.41,480.48"/>
        <lane id=":-386543_0_2" index="2" disallow="pedestrian tram rail_urban rail rail_electric rail_fast ship" speed="13.89" length="8.40" shape="3030.97,473.90 3023.88,477.68"/>
        <lane id=":-386543_0_3" index="3" disallow="pedestrian tram rail_urban rail rail_electric rail_fast ship" speed="13.89" length="8.40" shape="3030.97,473.90 3028.53,474.60 3026.64,474.35 3024.75,474.12 3022.34,474.87"/>
    </edge>
    <edge id=":-386543_w0" function="walkingarea">
        <lane id=":-386543_w0_0" index="0" allow="pedestrian" speed="1.00" length="8.49" width="2.00" shape="3027.71,484.70 3028.67,486.45 3034.09,479.94 3033.17,478.17 3031.71,479.19 3030.91,480.28 3030.43,481.40 3029.95,482.53 3029.15,483.64"/>
    </edge>
    <edge id=":-393647_0" function="internal">
        <lane id=":-393647_0_0" index="0" disallow="pedestrian tram rail_urban rail rail_electric rail_fast ship" speed="13.89" length="8.21" shape="3137.51,536.84 3138.81,538.88 3140.01,540.07 3141.22,541.26 3142.51,543.29"/>
        <lane id=":-393647_0_1" index="1" disallow="pedestrian tram rail_urban rail rail_electric rail_fast ship" speed="13.89" length="8.21" shape="3134.65,538.27 3135.94,540.30 3137.15,541.49 3138.36,542.68 3139.65,544.72"/>
        <lane id=":-393647_0_2" index="2" disallow="pedestrian tram rail_urban rail rail_electric rail_fast ship" speed="13.89" length="8.21" shape="3134.65,538.27 3135.49,540.53 3135.72,542.21 3135.94,543.89 3136.78,546.14"/>
    </edge>
    <edge id=":-393647_w0" function="walkingarea">
        <lane id=":-393647_w0_0" index="0" allow="pedestrian" speed="1.00" length="8.16" width="2.00" shape="3143.94,542.58 3145.73,541.69 3140.74,535.24 3138.95,536.13 3139.82,537.62 3140.65,538.61 3141.45,539.35 3142.24,540.09 3143.07,541.09"/>
    </edge>
    <edge id=":1168152924_0" function="internal">
        <lane id=":1168152924_0_0" index="0" disallow="pedestrian tram rail_urban rail rail_electric rail_fast ship" speed="13.89" length="0.27" shape="2882.05,542.97 2882.31,542.83"/>
        <lane id=":1168152924_0_1" index="1" disallow="pedestrian tram rail_urban rail rail_electric rail_fast ship" speed="13.89" length="0.27" shape="2883.61,545.76 2883.82,545.65"/>
    </edge>
    <edge id=":1168152924_w0" function="walkingarea">
        <lane id=":1168152924_w0_0" index="0" allow="pedestrian" speed="1.00" length="0.34" width="2.00" shape="2881.56,541.42 2880.61,539.66 2880.30,539.83 2881.27,541.57"/>
    </edge>
    <edge id=":27616538_0" function="internal">
        <lane id=":27616538_0_0" index="0" disallow="pedestrian tram rail_urban rail rail_electric rail_fast ship" speed="13.89" length="8.32" shape="3193.75,387.96 3191.90,389.66 3191.16,391.40 3190.41,393.14 3188.56,394.84"/>
        <lane id=":27616538_0_1" index="1" disallow="pedestrian tram rail_urban rail rail_electric rail_fast ship" speed="13.89" length="8.32" shape="3193.75,387.96 3186.90,392.10"/>
        <lane id=":27616538_0_2" index="2" disallow="pedestrian tram rail_urban rail rail_electric rail_fast ship" speed="13.89" length="8.32" shape="3192.09,385.22 3185.25,389.36"/>
        <lane id=":27616538_0_3" index="3" disallow="pedestrian tram rail_urban rail rail_electric rail_fast ship" speed="13.89" length="8.32" shape="3190.44,382.49 3183.59,386.62"/>
        <lane id=":27616538_0_4" index="4" disallow="pedestrian tram rail_urban rail rail_electric rail_fast ship" speed="13.89" length="8.32" shape="3190.44,382.49 3188.07,383.33 3186.19,383.19 3184.30,383.04 3181.94,383.88"/>
    </edge>
    <edge id=":27616538_w0" function="walkingarea">
        <lane id=":27616538_w0_0" index="0" allow="pedestrian" speed="1.00" length="8.62" width="2.00" shape="3189.38,396.21 3190.42,397.92 3195.62,391.04 3194.58,389.33 3193.17,390.46 3192.41,391.61 3191.98,392.77 3191.55,393.93 3190.79,395.08"/>
    </edge>
    <edge id=":320247089_0" function="internal">
        <lane id=":320247089_0_0" index="0" disallow="pedestrian tram rail_urban rail rail_electric rail_fast ship" speed="13.89" length="25.63" shape="3062.07,387.06 3066.26,393.67 3070.33,397.79 3074.85,400.87 3080.38,404.37"/>
    </edge>
    <edge id=":320247089_1" function="internal">
        <lane id=":320247089_1_0" index="0" disallow="pedestrian tram rail_urban rail rail_electric rail_fast ship" speed="13.89" length="24.80" shape="3062.07,387.06 3074.57,408.54"/>
        <lane id=":320247089_1_1" index="1" disallow="pedestrian tram rail_urban rail rail_electric rail_fast ship" speed="13.89" length="24.80" shape="3059.25,388.56 3071.70,409.96"/>
        <lane id=":320247089_1_2" index="2" disallow="pedestrian tram rail_urban rail rail_electric rail_fast ship" speed="13.89" length="24.80" shape="3059.25,388.56 3062.42,395.18 3064.15,399.92 3065.83,404.68 3068.84,411.39"/>
    </edge>
    <edge id=":320247089_w1" function="walkingarea">
        <lane id=":320247089_w1_0" index="0" allow="pedestrian" speed="1.00" length="24.25" width="2.00" shape="3081.53,403.22 3082.65,401.56 3065.25,385.37 3063.48,386.31 3066.09,390.82 3068.39,393.92 3070.73,396.16 3073.44,398.07 3076.84,400.18"/>
    </edge>
    <edge id=":320247103_0" function="internal">
        <lane id=":320247103_0_0" index="0" disallow="pedestrian tram rail_urban rail rail_electric rail_fast ship" speed="13.89" length="15.96" shape="3098.14,410.27 3102.86,410.70 3106.20,410.85 3109.37,410.18 3113.56,408.20"/>
    </edge>
    <edge id=":320247103_1" function="internal">
        <lane id=":320247103_1_0" index="0" disallow="pedestrian tram rail_urban rail rail_electric rail_fast ship" speed="13.89" length="15.49" shape="3100.04,415.84 3113.56,408.20"/>
        <lane id=":320247103_1_1" index="1" disallow="pedestrian tram rail_urban rail rail_electric rail_fast ship" speed="13.89" length="15.49" shape="3101.62,418.63 3115.10,411.01"/>
        <lane id=":320247103_1_2" index="2" disallow="pedestrian tram rail_urban rail rail_electric rail_fast ship" speed="13.89" length="15.49" shape="3103.19,421.42 3116.65,413.81"/>
    </edge>
    <edge id=":320247103_c0" function="crossing" crossingEdges="29113890">
        <lane id=":320247103_c0_0" index="0" allow="pedestrian" speed="1.00" length="3.20" width="4.00" shape="3100.02,412.00 3100.25,408.81"/>
    </edge>
    <edge id=":320247103_w0" function="walkingarea">
        <lane id=":320247103_w0_0" index="0" allow="pedestrian" speed="1.00" length="9.63" width="4.00" shape="3112.79,406.80 3111.82,405.05 3098.31,406.67 3098.16,408.66 3101.42,408.96 3103.84,409.20 3105.85,409.25 3107.79,408.97 3109.99,408.20"/>
    </edge>
    <edge id=":320247103_w1" function="walkingarea">
        <lane id=":320247103_w1_0" index="0" allow="pedestrian" speed="1.00" length="2.02" width="4.00" shape="3098.03,411.86 3098.27,412.71 3099.26,414.45 3100.31,413.76 3100.87,413.18 3100.91,412.69 3100.46,412.31 3099.49,412.04"/>
    </edge>
    <edge id=":320247106_0" function="internal">
        <lane id=":320247106_0_0" index="0" disallow="pedestrian tram rail_urban rail rail_electric rail_fast ship" speed="13.89" length="14.55" shape="3123.90,433.88 3120.32,436.22 3118.13,438.22 3116.40,440.67 3114.15,444.36"/>
    </edge>
    <edge id=":320247106_1" function="internal">
        <lane id=":320247106_1_0" index="0" disallow="pedestrian tram rail_urban rail rail_electric rail_fast ship" speed="13.89" length="13.10" shape="3122.36,431.08 3111.07,437.91"/>
        <lane id=":320247106_1_1" index="1" disallow="pedestrian tram rail_urban rail rail_electric rail_fast ship" speed="13.89" length="13.10" shape="3120.82,428.27 3109.58,435.08"/>
        <lane id=":320247106_1_2" index="2" disallow="pedestrian tram rail_urban rail rail_electric rail_fast ship" speed="13.89" length="13.10" shape="3119.27,425.46 3108.10,432.24"/>
        <lane id=":320247106_1_3" index="3" disallow="pedestrian tram rail_urban rail rail_electric rail_fast ship" speed="13.89" length="13.10" shape="3117.73,422.65 3106.62,429.41"/>
    </edge>
    <edge id=":320247106_w0" function="walkingarea">
        <lane id=":320247106_w0_0" index="0" allow="pedestrian" speed="1.00" length="13.37" width="2.00" shape="3115.24,445.78 3117.14,446.39 3125.67,437.02 3124.63,435.31 3122.28,436.81 3120.55,438.11 3119.28,439.37 3118.19,440.83 3117.03,442.70"/>
    </edge>
    <edge id=":320247118_0" function="internal">
        <lane id=":320247118_0_0" index="0" disallow="pedestrian tram rail_urban rail rail_electric rail_fast ship" speed="13.89" length="19.96" shape="3108.30,462.15 3106.71,467.77 3106.37,471.89 3107.37,475.91 3109.82,481.22"/>
    </edge>
    <edge id=":320247118_1" function="internal">
        <lane id=":320247118_1_0" index="0" disallow="pedestrian tram rail_urban rail rail_electric rail_fast ship" speed="13.89" length="19.12" shape="3101.15,464.16 3109.82,481.22"/>
        <lane id=":320247118_1_1" index="1" disallow="pedestrian tram rail_urban rail rail_electric rail_fast ship" speed="13.89" length="19.12" shape="3098.30,465.62 3106.96,482.64"/>
    </edge>
    <edge id=":320247118_c0" function="crossing" crossingEdges="29113896">
        <lane id=":320247118_c0_0" index="0" allow="pedestrian" speed="1.00" length="3.20" width="4.00" shape="3106.17,463.57 3109.22,464.54"/>
    </edge>
    <edge id=":320247118_w0" function="walkingarea">
        <lane id=":320247118_w0_0" index="0" allow="pedestrian" speed="1.00" length="12.25" width="4.00" shape="3111.25,480.50 3113.04,479.61 3111.99,462.46 3110.08,461.84 3109.83,462.64 3108.71,466.37 3108.09,469.28 3108.02,471.76 3108.50,474.20 3109.57,476.99"/>
    </edge>
    <edge id=":320247118_w1" function="walkingarea">
        <lane id=":320247118_w1_0" index="0" allow="pedestrian" speed="1.00" length="2.77" width="4.00" shape="3106.78,461.66 3104.35,462.53 3102.57,463.44 3103.31,464.61 3104.03,465.19 3104.74,465.18 3105.43,464.60 3106.11,463.42"/>
    </edge>
    <edge id=":320247125_0" function="internal">
        <lane id=":320247125_0_0" index="0" disallow="pedestrian tram rail_urban rail rail_electric rail_fast ship" speed="13.89" length="8.60" shape="2946.64,507.99 2948.52,506.38 2949.30,504.68 2950.07,502.96 2951.91,501.30"/>
        <lane id=":320247125_0_1" index="1" disallow="pedestrian tram rail_urban rail rail_electric rail_fast ship" speed="13.89" length="8.60" shape="2948.19,510.79 2950.09,509.17 2950.89,507.46 2951.67,505.73 2953.54,504.05"/>
        <lane id=":320247125_0_2" index="2" disallow="pedestrian tram rail_urban rail rail_electric rail_fast ship" speed="13.89" length="8.60" shape="2948.19,510.79 2955.16,506.81"/>
        <lane id=":320247125_0_3" index="3" disallow="pedestrian tram rail_urban rail rail_electric rail_fast ship" speed="13.89" length="8.60" shape="2948.19,510.79 2950.61,510.02 2952.51,510.22 2954.40,510.39 2956.79,509.57"/>
    </edge>
    <edge id=":320247125_w0" function="walkingarea">
        <lane id=":320247125_w0_0" index="0" allow="pedestrian" speed="1.00" length="8.45" width="2.00" shape="2951.10,499.92 2950.08,498.20 2944.90,504.83 2945.87,506.58 2947.29,505.53 2948.06,504.42 2948.51,503.29 2948.95,502.15 2949.70,501.02"/>
    </edge>
    <edge id=":320247127_0" function="internal">
        <lane id=":320247127_0_0" index="0" disallow="pedestrian tram rail_urban rail rail_electric rail_fast ship" speed="13.89" length="8.20" shape="2974.76,507.77 2972.80,509.18 2971.67,510.45 2970.55,511.72 2968.58,513.11"/>
        <lane id=":320247127_0_1" index="1" disallow="pedestrian tram rail_urban rail rail_electric rail_fast ship" speed="13.89" length="8.20" shape="2973.17,504.99 2971.22,506.40 2970.10,507.67 2968.98,508.93 2967.02,510.32"/>
        <lane id=":320247127_0_2" index="2" disallow="pedestrian tram rail_urban rail rail_electric rail_fast ship" speed="13.89" length="8.20" shape="2973.17,504.99 2970.97,505.96 2969.32,506.27 2967.66,506.58 2965.45,507.53"/>
    </edge>
    <edge id=":320247127_w0" function="walkingarea">
        <lane id=":320247127_w0_0" index="0" allow="pedestrian" speed="1.00" length="8.19" width="2.00" shape="2969.36,514.51 2970.34,516.25 2976.54,510.90 2975.55,509.16 2974.11,510.12 2973.16,511.00 2972.46,511.84 2971.76,512.68 2970.81,513.56"/>
    </edge>
    <edge id=":320247133_0" function="internal">
        <lane id=":320247133_0_0" index="0" disallow="pedestrian tram rail_urban rail rail_electric rail_fast ship" speed="13.89" length="8.17" shape="2934.74,532.08 2932.76,533.48 2931.62,534.74 2930.47,535.99 2928.47,537.35"/>
        <lane id=":320247133_0_1" index="1" disallow="pedestrian tram rail_urban rail rail_electric rail_fast ship" speed="13.89" length="8.17" shape="2933.18,529.29 2931.21,530.68 2930.08,531.94 2928.94,533.18 2926.95,534.54"/>
        <lane id=":320247133_0_2" index="2" disallow="pedestrian tram rail_urban rail rail_electric rail_fast ship" speed="13.89" length="8.17" shape="2931.61,526.50 2929.66,527.88 2928.54,529.13 2927.41,530.37 2925.44,531.72"/>
        <lane id=":320247133_0_3" index="3" disallow="pedestrian tram rail_urban rail rail_electric rail_fast ship" speed="13.89" length="8.17" shape="2931.61,526.50 2929.43,527.44 2927.78,527.72 2926.13,528.00 2923.92,528.90"/>
    </edge>
    <edge id=":320247133_w0" function="walkingarea">
        <lane id=":320247133_w0_0" index="0" allow="pedestrian" speed="1.00" length="8.24" width="2.00" shape="2929.23,538.76 2930.18,540.53 2936.50,535.22 2935.52,533.48 2934.06,534.43 2933.10,535.31 2932.39,536.14 2931.67,536.97 2930.70,537.84"/>
    </edge>
    <edge id=":996182429_0" function="internal">
        <lane id=":996182429_0_0" index="0" disallow="pedestrian tram rail_urban rail rail_electric rail_fast ship" speed="13.89" length="8.82" shape="3123.47,547.10 3121.63,545.17 3119.51,544.66 3117.38,544.15 3115.53,542.23"/>
        <lane id=":996182429_0_1" index="1" disallow="pedestrian tram rail_urban rail rail_electric rail_fast ship" speed="13.89" length="8.82" shape="3123.47,547.10 3122.15,545.09 3120.93,543.92 3119.70,542.75 3118.37,540.75"/>
        <lane id=":996182429_0_2" index="2" disallow="pedestrian tram rail_urban rail rail_electric rail_fast ship" speed="13.89" length="8.82" shape="3126.31,545.63 3124.99,543.62 3123.77,542.44 3122.54,541.27 3121.20,539.26"/>
        <lane id=":996182429_0_3" index="3" disallow="pedestrian tram rail_urban rail rail_electric rail_fast ship" speed="13.89" length="8.82" shape="3126.31,545.63 3125.43,543.38 3125.18,541.70 3124.93,540.02 3124.04,537.78"/>
        <lane id=":996182429_0_4" index="4" disallow="pedestrian tram rail_urban rail rail_electric rail_fast ship" speed="13.89" length="8.82" shape="3126.31,545.63 3125.80,543.00 3126.60,540.96 3127.40,538.92 3126.88,536.30"/>
    </edge>
    <edge id=":996182429_w0" function="walkingarea">
        <lane id=":996182429_w0_0" index="0" allow="pedestrian" speed="1.00" length="9.30" width="2.00" shape="3114.11,542.97 3112.34,543.90 3120.27,548.75 3122.05,547.83 3120.87,546.32 3119.52,545.65 3118.09,545.40 3116.65,545.14 3115.30,544.47"/>
    </edge>
    <edge id=":cluster_-385653_11791471_248572065_0" function="internal">
        <lane id=":cluster_-385653_11791471_248572065_0_0" index="0" disallow="pedestrian tram rail_urban rail rail_electric rail_fast ship" speed="3.82" length="5.30" shape="2864.70,560.49 2863.07,560.37 2862.22,559.81 2862.17,558.80 2862.90,557.33"/>
    </edge>
    <edge id=":cluster_-385653_11791471_248572065_w0" function="walkingarea">
        <lane id=":cluster_-385653_11791471_248572065_w0_0" index="0" allow="pedestrian" speed="1.00" length="21.63" width="2.00" shape="2860.56,553.14 2859.58,551.40 2870.83,572.18 2869.90,570.40"/>
    </edge>
    <edge id=":cluster_11791147_2032404487_27789090_81290972_0" function="internal">
        <lane id=":cluster_11791147_2032404487_27789090_81290972_0_0" index="0" disallow="pedestrian tram rail_urban rail rail_electric rail_fast ship" speed="7.11" length="6.90" shape="3075.88,462.40 3073.94,459.20 3071.84,457.31 3071.52,457.23"/>
    </edge>
    <edge id=":cluster_11791147_2032404487_27789090_81290972_1" function="internal">
        <lane id=":cluster_11791147_2032404487_27789090_81290972_1_0" index="0" disallow="pedestrian tram rail_urban rail rail_electric rail_fast ship" speed="13.89" length="36.60" shape="3078.73,460.95 3064.17,427.28"/>
        <lane id=":cluster_11791147_2032404487_27789090_81290972_1_1" index="1" disallow="pedestrian tram rail_urban rail rail_electric rail_fast ship" speed="13.89" length="36.60" shape="3081.58,459.50 3067.10,425.99"/>
    </edge>
    <edge id=":cluster_11791147_2032404487_27789090_81290972_3" function="internal">
        <lane id=":cluster_11791147_2032404487_27789090_81290972_3_0" index="0" disallow="pedestrian tram rail_urban rail rail_electric rail_fast ship" speed="12.96" length="32.82" shape="3084.44,458.05 3080.57,447.23 3080.15,438.19 3083.16,430.91 3086.51,428.05"/>
    </edge>
    <edge id=":cluster_11791147_2032404487_27789090_81290972_4" function="internal">
        <lane id=":cluster_11791147_2032404487_27789090_81290972_4_0" index="0" disallow="pedestrian tram rail_urban rail rail_electric rail_fast ship" speed="12.09" length="27.86" shape="3087.29,456.59 3083.84,447.08 3083.34,439.18 3085.79,432.88 3088.11,430.87"/>
    </edge>
    <edge id=":cluster_11791147_2032404487_27789090_81290972_5" function="internal">
        <lane id=":cluster_11791147_2032404487_27789090_81290972_5_0" index="0" disallow="pedestrian tram rail_urban rail rail_electric rail_fast ship" speed="4.53" length="8.34" shape="3087.29,456.59 3087.59,454.04 3088.54,452.75 3090.14,452.74 3092.38,454.00"/>
    </edge>
    <edge id=":cluster_11791147_2032404487_27789090_81290972_21" function="internal">
        <lane id=":cluster_11791147_2032404487_27789090_81290972_21_0" index="0" disallow="pedestrian tram rail_urban rail rail_electric rail_fast ship" speed="7.11" length="4.60" shape="3071.52,457.23 3069.55,456.75 3067.09,457.51"/>
    </edge>
    <edge id=":cluster_11791147_2032404487_27789090_81290972_22" function="internal">
        <lane id=":cluster_11791147_2032404487_27789090_81290972_22_0" index="0" disallow="pedestrian tram rail_urban rail rail_electric rail_fast ship" speed="12.96" length="4.07" shape="3086.51,428.05 3089.62,425.41"/>
    </edge>
    <edge id=":cluster_11791147_2032404487_27789090_81290972_23" function="internal">
        <lane id=":cluster_11791147_2032404487_27789090_81290972_23_0" index="0" disallow="pedestrian tram rail_urban rail rail_electric rail_fast ship" speed="12.09" length="4.08" shape="3088.11,430.87 3091.19,428.20"/>
    </edge>
    <edge id=":cluster_11791147_2032404487_27789090_81290972_6" function="internal">
        <lane id=":cluster_11791147_2032404487_27789090_81290972_6_0" index="0" disallow="pedestrian tram rail_urban rail rail_electric rail_fast ship" speed="13.89" length="35.69" shape="3099.98,443.77 3090.04,448.40 3082.54,451.02 3075.54,453.45 3067.09,457.51"/>
        <lane id=":cluster_11791147_2032404487_27789090_81290972_6_1" index="1" disallow="pedestrian tram rail_urban rail rail_electric rail_fast ship" speed="13.89" length="35.69" shape="3098.41,440.98 3088.47,445.61 3080.97,448.23 3073.98,450.66 3065.53,454.72"/>
    </edge>
    <edge id=":cluster_11791147_2032404487_27789090_81290972_8" function="internal">
        <lane id=":cluster_11791147_2032404487_27789090_81290972_8_0" index="0" disallow="pedestrian tram rail_urban rail rail_electric rail_fast ship" speed="12.23" length="32.10" shape="3096.84,438.19 3088.92,439.38 3078.90,437.34 3069.69,433.00 3067.13,430.35"/>
    </edge>
    <edge id=":cluster_11791147_2032404487_27789090_81290972_9" function="internal">
        <lane id=":cluster_11791147_2032404487_27789090_81290972_9_0" index="0" disallow="pedestrian tram rail_urban rail rail_electric rail_fast ship" speed="11.46" length="27.64" shape="3095.26,435.41 3088.05,436.83 3079.58,435.30 3071.91,431.47 3069.86,429.14"/>
    </edge>
    <edge id=":cluster_11791147_2032404487_27789090_81290972_10" function="internal">
        <lane id=":cluster_11791147_2032404487_27789090_81290972_10_0" index="0" disallow="pedestrian tram rail_urban rail rail_electric rail_fast ship" speed="5.27" length="12.09" shape="3095.26,435.41 3091.54,435.13 3089.62,433.84 3089.50,431.53 3091.19,428.20"/>
    </edge>
    <edge id=":cluster_11791147_2032404487_27789090_81290972_24" function="internal">
        <lane id=":cluster_11791147_2032404487_27789090_81290972_24_0" index="0" disallow="pedestrian tram rail_urban rail rail_electric rail_fast ship" speed="12.23" length="4.26" shape="3067.13,430.35 3064.17,427.28"/>
    </edge>
    <edge id=":cluster_11791147_2032404487_27789090_81290972_25" function="internal">
        <lane id=":cluster_11791147_2032404487_27789090_81290972_25_0" index="0" disallow="pedestrian tram rail_urban rail rail_electric rail_fast ship" speed="11.46" length="4.19" shape="3069.86,429.14 3067.10,425.99"/>
    </edge>
    <edge id=":cluster_11791147_2032404487_27789090_81290972_11" function="internal">
        <lane id=":cluster_11791147_2032404487_27789090_81290972_11_0" index="0" disallow="pedestrian tram rail_urban rail rail_electric rail_fast ship" speed="13.89" length="35.76" shape="3080.34,420.14 3095.23,452.55"/>
        <lane id=":cluster_11791147_2032404487_27789090_81290972_11_1" index="1" disallow="pedestrian tram rail_urban rail rail_electric rail_fast ship" speed="13.89" length="35.76" shape="3077.41,421.43 3092.38,454.00"/>
    </edge>
    <edge id=":cluster_11791147_2032404487_27789090_81290972_13" function="internal">
        <lane id=":cluster_11791147_2032404487_27789090_81290972_13_0" index="0" disallow="pedestrian tram rail_urban rail rail_electric rail_fast ship" speed="12.95" length="33.45" shape="3074.48,422.73 3077.87,432.65 3077.50,441.29 3073.39,448.64 3068.73,452.24"/>
    </edge>
    <edge id=":cluster_11791147_2032404487_27789090_81290972_14" function="internal">
        <lane id=":cluster_11791147_2032404487_27789090_81290972_14_0" index="0" disallow="pedestrian tram rail_urban rail rail_electric rail_fast ship" speed="5.22" length="11.79" shape="3074.48,422.73 3073.86,426.31 3072.42,428.05 3070.17,427.94 3067.10,425.99"/>
    </edge>
    <edge id=":cluster_11791147_2032404487_27789090_81290972_26" function="internal">
        <lane id=":cluster_11791147_2032404487_27789090_81290972_26_0" index="0" disallow="pedestrian tram rail_urban rail rail_electric rail_fast ship" speed="12.95" length="4.04" shape="3068.73,452.24 3065.53,454.72"/>
    </edge>
    <edge id=":cluster_11791147_2032404487_27789090_81290972_15" function="internal">
        <lane id=":cluster_11791147_2032404487_27789090_81290972_15_0" index="0" disallow="pedestrian tram rail_urban rail rail_electric rail_fast ship" speed="8.60" length="10.63" shape="3056.74,438.96 3060.96,436.05 3063.61,433.13 3064.14,431.67"/>
    </edge>
    <edge id=":cluster_11791147_2032404487_27789090_81290972_16" function="internal">
        <lane id=":cluster_11791147_2032404487_27789090_81290972_16_0" index="0" disallow="pedestrian tram rail_urban rail rail_electric rail_fast ship" speed="13.89" length="35.33" shape="3056.74,438.96 3088.04,422.62"/>
        <lane id=":cluster_11791147_2032404487_27789090_81290972_16_1" index="1" disallow="pedestrian tram rail_urban rail rail_electric rail_fast ship" speed="13.89" length="35.33" shape="3058.30,441.75 3089.62,425.41"/>
        <lane id=":cluster_11791147_2032404487_27789090_81290972_16_2" index="2" disallow="pedestrian tram rail_urban rail rail_electric rail_fast ship" speed="13.89" length="35.33" shape="3059.86,444.55 3091.19,428.20"/>
    </edge>