<routes>
	<vType id="veh_passenger" vClass="passenger"/>
	<trip id="veh-0" type="veh_passenger" depart="0" departLane="best" from="317217122#0" to="-182653"/>
	<trip id="veh-1" type="veh_passenger" depart="0" departLane="best" from="-182559" to="-182723"/>
	<trip id="veh-2" type="veh_passenger" depart="1" departLane="best" from="317217122#0" to="177513127#0"/>
	<trip id="veh-3" type="veh_passenger" depart="1" departLane="best" from="-182707" to="177513127#0"/>
	<trip id="veh-4" type="veh_passenger" depart="2" departLane="best" from="-182559" to="-182723"/>
	<trip id="veh-5" type="veh_passenger" depart="3" departLane="best" from="-183577" to="317209213"/>
	<trip id="veh-6" type="veh_passenger" depart="3" departLane="best" from="-182707" to="-182653"/>
	<trip id="veh-7" type="veh_passenger" depart="5" departLane="best" from="-182707" to="-182653"/>
	<trip id="veh-8" type="veh_passenger" depart="5" departLane="best" from="-182707" to="177513127#0"/>
	<trip id="veh-9" type="veh_passenger" depart="5" departLane="best" from="-182559" to="177513127#0"/>
	<trip id="veh-10" type="veh_passenger" depart="6" departLane="best" from="-183577" to="317209213"/>
	<trip id="veh-11" type="veh_passenger" depart="6" departLane="best" from="-182707" to="-182653"/>
	<trip id="veh-12" type="veh_passenger" depart="6" departLane="best" from="-182707" to="177513127#0"/>
	<trip id="veh-13" type="veh_passenger" depart="7" departLane="best" from="-182559" to="-182723"/>
	<trip id="veh-14" type="veh_passenger" depart="7" departLane="best" from="-182559" to="177513127#0"/>
	<trip id="veh-15" type="veh_passenger" depart="8" departLane="best" from="-183577" to="-182723"/>
	<trip id="veh-16" type="veh_passenger" depart="8" departLane="best" from="-182707" to="-182653"/>
	<trip id="veh-17" type="veh_passenger" depart="9" departLane="best" from="-183577" to="317209213"/>
	<trip id="veh-18" type="veh_passenger" depart="9" departLane="best" from="-182707" to="177513127#0"/>
	<trip id="veh-19" type="veh_passenger" depart="10" departLane="best" from="317217122#0" to="177513127#0"/>
	<trip id="veh-20" type="veh_passenger" depart="10" departLane="best" from="-182707" to="-182653"/>
	<trip id="veh-21" type="veh_passenger" depart="11" departLane="best" from="317217122#0" to="177513127#0"/>
	<trip id="veh-22" type="veh_passenger" depart="12" departLane="best" from="317217122#0" to="177513127#0"/>
	<trip id="veh-23" type="veh_passenger" depart="12" departLane="best" from="-183577" to="-182653"/>
	<trip id="veh-24" type="veh_passenger" depart="14" departLane="best" from="317217122#0" to="177513127#0"/>
	<trip id="veh-25" type="veh_passenger" depart="14" departLane="best" from="-183577" to="317209213"/>
	<trip id="veh-26" type="veh_passenger" depart="14" departLane="best" from="-183577" to="-182723"/>
	<trip id="veh-27" type="veh_passenger" depart="15" departLane="best" from="-183577" to="317209213"/>
	<trip id="veh-28" type="veh_passenger" depart="15" departLane="best" from="-182559" to="-182723"/>
	<trip id="veh-29" type="veh_passenger" depart="16" departLane="best" from="317217122#0" to="177513127#0"/>
	<trip id="veh-30" type="veh_passenger" depart="16" departLane="best" from="-182559" to="317209213"/>
	<trip id="veh-31" type="veh_passenger" depart="17" departLane="best" from="-183577" to="317209213"/>
	<trip id="veh-32" type="veh_passenger" depart="18" departLane="best" from="317217122#0" to="-182723"/>
	<trip id="veh-33" type="veh_passenger" depart="18" departLane="best" from="-182707" to="317209213"/>
	<trip id="veh-34" type="veh_passenger" depart="18" departLane="best" from="-182707" to="177513127#0"/>
	<trip id="veh-35" type="veh_passenger" depart="19" departLane="best" from="317217122#0" to="177513127#0"/>
	<trip id="veh-36" type="veh_passenger" depart="19" departLane="best" from="-182707" to="-182653"/>
	<trip id="veh-37" type="veh_passenger" depart="20" departLane="best" from="-183577" to="317209213"/>
	<trip id="veh-38" type="veh_passenger" depart="21" departLane="best" from="317217122#0" to="177513127#0"/>
	<trip id="veh-39" type="veh_passenger" depart="21" departLane="best" from="-183577" to="-182723"/>
	<trip id="veh-40" type="veh_passenger" depart="22" departLane="best" from="-183577" to="-182723"/>
	<trip id="veh-41" type="veh_passenger" depart="23" departLane="best" from="317217122#0" to="177513127#0"/>
	<trip id="veh-42" type="veh_passenger" depart="24" departLane="best" from="-182707" to="177513127#0"/>
	<trip id="veh-43" type="veh_passenger" depart="25" departLane="best" from="-183577" to="-182723"/>
	<trip id="veh-44" type="veh_passenger" depart="26" departLane="best" from="317217122#0" to="177513127#0"/>
	<trip id="veh-45" type="veh_passenger" depart="27" departLane="best" from="317217122#0" to="177513127#0"/>
	<trip id="veh-46" type="veh_passenger" depart="27" departLane="best" from="-183577" to="317209213"/>
	<trip id="veh-47" type="veh_passenger" depart="28" departLane="best" from="-182559" to="-182723"/>
	<trip id="veh-48" type="veh_passenger" depart="30" departLane="best" from="317217122#0" to="-182653"/>
	<trip id="veh-49" type="veh_passenger" depart="31" departLane="best" from="-183577" to="-182653"/>
	<trip id="veh-50" type="veh_passenger" depart="31" departLane="best" from="-182707" to="-182653"/>
	<trip id="veh-51" type="veh_passenger" depart="31" departLane="best" from="-182559" to="-182723"/>
	<trip id="veh-52" type="veh_passenger" depart="32" departLane="best" from="-183577" to="317209213"/>
	<trip id="veh-53" type="veh_passenger" depart="32" departLane="best" from="-183577" to="-182723"/>
	<trip id="veh-54" type="veh_passenger" depart="33" departLane="best" from="317217122#0" to="177513127#0"/>
	<trip id="veh-55" type="veh_passenger" depart="33" departLane="best" from="-182707" to="-182653"/>
	<trip id="veh-56" type="veh_passenger" depart="34" departLane="best" from="-182707" to="-182653"/>
	<trip id="veh-57" type="veh_passenger" depart="34" departLane="best" from="-182559" to="-182723"/>
	<trip id="veh-58" type="veh_passenger" depart="35" departLane="best" from="-183577" to="-182723"/>
	<trip id="veh-59" type="veh_passenger" depart="37" departLane="best" from="317217122#0" to="177513127#0"/>
	<trip id="veh-60" type="veh_passenger" depart="37" departLane="best" from="-183577" to="-182723"/>
	<trip id="veh-61" type="veh_passenger" depart="37" departLane="best" from="-182707" to="-182653"/>
	<trip id="veh-62" type="veh_passenger" depart="38" departLane="best" from="317217122#0" to="177513127#0"/>
	<trip id="veh-63" type="veh_passenger" depart="39" departLane="best" from="-182559" to="-182723"/>
	<trip id="veh-64" type="veh_passenger" depart="39" departLane="best" from="-182559" to="317209213"/>
	<trip id="veh-65" type="veh_passenger" depart="41" departLane="best" from="317217122#0" to="177513127#0"/>
	<trip id="veh-66" type="veh_passenger" depart="42" departLane="best" from="-182559" to="-182723"/>
	<trip id="veh-67" type="veh_passenger" depart="43" departLane="best" from="317217122#0" to="177513127#0"/>
	<trip id="veh-68" type="veh_passenger" depart="44" departLane="best" from="317217122#0" to="177513127#0"/>
	<trip id="veh-69" type="veh_passenger" depart="44" departLane="best" from="-182559" to="-182723"/>
	<trip id="veh-70" type="veh_passenger" depart="45" departLane="best" from="317217122#0" to="177513127#0"/>
	<trip id="veh-71" type="veh_passenger" depart="45" departLane="best" from="-182707" to="-182653"/>
	<trip id="veh-72" type="veh_passenger" depart="48" departLane="best" from="317217122#0" to="177513127#0"/>
	<trip id="veh-73" type="veh_passenger" depart="48" departLane="best" from="-183577" to="317209213"/>
	<trip id="veh-74" type="veh_passenger" depart="51" departLane="best" from="-182707" to="177513127#0"/>
	<trip id="veh-75" type="veh_passenger" depart="53" departLane="best" from="-183577" to="317209213"/>
	<trip id="veh-76" type="veh_passenger" depart="53" departLane="best" from="-182707" to="177513127#0"/>
	<trip id="veh-77" type="veh_passenger" depart="54" departLane="best" from="317217122#0" to="177513127#0"/>
	<trip id="veh-78" type="veh_passenger" depart="54" departLane="best" from="-183577" to="317209213"/>
	<trip id="veh-79" type="veh_passenger" depart="54" departLane="best" from="-182707" to="-182653"/>
	<trip id="veh-80" type="veh_passenger" depart="55" departLane="best" from="317217122#0" to="177513127#0"/>
	<trip id="veh-81" type="veh_passenger" depart="55" departLane="best" from="317217122#0" to="-182723"/>
	<trip id="veh-82" type="veh_passenger" depart="56" departLane="best" from="-182707" to="-182653"/>
	<trip id="veh-83" type="veh_passenger" depart="56" departLane="best" from="-182559" to="-182723"/>
	<trip id="veh-84" type="veh_passenger" depart="58" departLane="best" from="-183577" to="317209213"/>
	<trip id="veh-85" type="veh_passenger" depart="59" departLane="best" from="-182559" to="-182723"/>
	<trip id="veh-86" type="veh_passenger" depart="60" departLane="best" from="-183577" to="317209213"/>
	<trip id="veh-87" type="veh_passenger" depart="60" departLane="best" from="-183577" to="-182723"/>
	<trip id="veh-88" type="veh_passenger" depart="61" departLane="best" from="317217122#0" to="177513127#0"/>
	<trip id="veh-89" type="veh_passenger" depart="61" departLane="best" from="-183577" to="317209213"/>
	<trip id="veh-90" type="veh_passenger" depart="62" departLane="best" from="-182707" to="-182653"/>
	<trip id="veh-91" type="veh_passenger" depart="63" departLane="best" from="-183577" to="-182653"/>
	<trip id="veh-92" type="veh_passenger" depart="63" departLane="best" from="-182707" to="-182653"/>
	<trip id="veh-93" type="veh_passenger" depart="63" departLane="best" from="-182707" to="177513127#0"/>
	<trip id="veh-94" type="veh_passenger" depart="64" departLane="best" from="317217122#0" to="177513127#0"/>
	<trip id="veh-95" type="veh_passenger" depart="64" departLane="best" from="317217122#0" to="-182723"/>
	<trip id="veh-96" type="veh_passenger" depart="64" departLane="best" from="-183577" to="317209213"/>
	<trip id="veh-97" type="veh_passenger" depart="64" departLane="best" from="-182707" to="177513127#0"/>
	<trip id="veh-98" type="veh_passenger" depart="65" departLane="best" from="-183577" to="-182723"/>
	<trip id="veh-99" type="veh_passenger" depart="66" departLane="best" from="-183577" to="-182723"/>
	<trip id="veh-100" type="veh_passenger" depart="66" departLane="best" from="-182707" to="-182653"/>
	<trip id="veh-101" type="veh_passenger" depart="68" departLane="best" from="-183577" to="-182723"/>
	<trip id="veh-102" type="veh_passenger" depart="69" departLane="best" from="-182707" to="177513127#0"/>
	<trip id="veh-103" type="veh_passenger" depart="70" departLane="best" from="-183577" to="-182653"/>
	<trip id="veh-104" type="veh_passenger" depart="70" departLane="best" from="-182707" to="-182653"/>
	<trip id="veh-105" type="veh_passenger" depart="70" departLane="best" from="-182559" to="317209213"/>
	<trip id="veh-106" type="veh_passenger" depart="71" departLane="best" from="-182559" to="-182723"/>
	<trip id="veh-107" type="veh_passenger" depart="73" departLane="best" from="317217122#0" to="177513127#0"/>
	<trip id="veh-108" type="veh_passenger" depart="73" departLane="best" from="-183577" to="317209213"/>
	<trip id="veh-109" type="veh_passenger" depart="73" departLane="best" from="-183577" to="-182723"/>
	<trip id="veh-110" type="veh_passenger" depart="73" departLane="best" from="-182707" to="-182653"/>
	<trip id="veh-111" type="veh_passenger" depart="73" departLane="best" from="-182559" to="177513127#0"/>
	<trip id="veh-112" type="veh_passenger" depart="74" departLane="best" from="317217122#0" to="177513127#0"/>
	<trip id="veh-113" type="veh_passenger" depart="74" departLane="best" from="317217122#0" to="-182653"/>
	<trip id="veh-114" type="veh_passenger" depart="74" departLane="best" from="-182707" to="-182653"/>
	<trip id="veh-115" type="veh_passenger" depart="75" departLane="best" from="-182707" to="-182653"/>
	<trip id="veh-116" type="veh_passenger" depart="75" departLane="best" from="-182707" to="177513127#0"/>
	<trip id="veh-117" type="veh_passenger" depart="77" departLane="best" from="-183577" to="317209213"/>
	<trip id="veh-118" type="veh_passenger" depart="77" departLane="best" from="-182707" to="-182653"/>
	<trip id="veh-119" type="veh_passenger" depart="77" departLane="best" from="-182559" to="-182723"/>
	<trip id="veh-120" type="veh_passenger" depart="77" departLane="best" from="-182559" to="177513127#0"/>
	<trip id="veh-121" type="veh_passenger" depart="78" departLane="best" from="-182559" to="-182723"/>
	<trip id="veh-122" type="veh_passenger" depart="79" departLane="best" from="-183577" to="317209213"/>
	<trip id="veh-123" type="veh_passenger" depart="79" departLane="best" from="-182707" to="-182653"/>
	<trip id="veh-124" type="veh_passenger" depart="80" departLane="best" from="317217122#0" to="177513127#0"/>
	<trip id="veh-125" type="veh_passenger" depart="82" departLane="best" from="-183577" to="317209213"/>
	<trip id="veh-126" type="veh_passenger" depart="82" departLane="best" from="-183577" to="-182723"/>
	<trip id="veh-127" type="veh_passenger" depart="82" departLane="best" from="-182707" to="177513127#0"/>
	<trip id="veh-128" type="veh_passenger" depart="85" departLane="best" from="317217122#0" to="177513127#0"/>
	<trip id="veh-129" type="veh_passenger" depart="85" departLane="best" from="-182559" to="177513127#0"/>
	<trip id="veh-130" type="veh_passenger" depart="86" departLane="best" from="317217122#0" to="177513127#0"/>
	<trip id="veh-131" type="veh_passenger" depart="86" departLane="best" from="-182707" to="-182653"/>
	<trip id="veh-132" type="veh_passenger" depart="86" departLane="best" from="-182559" to="-182723"/>
	<trip id="veh-133" type="veh_passenger" depart="87" departLane="best" from="317217122#0" to="177513127#0"/>
	<trip id="veh-134" type="veh_passenger" depart="87" departLane="best" from="-183577" to="-182723"/>
	<trip id="veh-135" type="veh_passenger" depart="88" departLane="best" from="317217122#0" to="177513127#0"/>
	<trip id="veh-136" type="veh_passenger" depart="89" departLane="best" from="-183577" to="317209213"/>
	<trip id="veh-137" type="veh_passenger" depart="89" departLane="best" from="-183577" to="-182653"/>
	<trip id="veh-138" type="veh_passenger" depart="90" departLane="best" from="317217122#0" to="177513127#0"/>
	<trip id="veh-139" type="veh_passenger" depart="90" departLane="best" from="-183577" to="-182723"/>
	<trip id="veh-140" type="veh_passenger" depart="90" departLane="best" from="-182707" to="177513127#0"/>
	<trip id="veh-141" type="veh_passenger" depart="90" departLane="best" from="-182559" to="-182723"/>
	<trip id="veh-142" type="veh_passenger" depart="91" departLane="best" from="-182707" to="-182653"/>
	<trip id="veh-143" type="veh_passenger" depart="92" departLane="best" from="-182707" to="177513127#0"/>
	<trip id="veh-144" type="veh_passenger" depart="93" departLane="best" from="-182707" to="-182653"/>
	<trip id="veh-145" type="veh_passenger" depart="94" departLane="best" from="317217122#0" to="-182653"/>
	<trip id="veh-146" type="veh_passenger" depart="95" departLane="best" from="317217122#0" to="177513127#0"/>
	<trip id="veh-147" type="veh_passenger" depart="97" departLane="best" from="317217122#0" to="177513127#0"/>
	<trip id="veh-148" type="veh_passenger" depart="97" departLane="best" from="-183577" to="317209213"/>
	<trip id="veh-149" type="veh_passenger" depart="97" departLane="best" from="-182707" to="177513127#0"/>
	<trip id="veh-150" type="veh_passenger" depart="98" departLane="best" from="-182559" to="177513127#0"/>
	<trip id="veh-151" type="veh_passenger" depart="99" departLane="best" from="317217122#0" to="177513127#0"/>
	<trip id="veh-152" type="veh_passenger" depart="99" departLane="best" from="-182707" to="-182653"/>
	<trip id="veh-153" type="veh_passenger" depart="100" departLane="best" from="-182707" to="-182653"/>
	<trip id="veh-154" type="veh_passenger" depart="101" departLane="best" from="-182707" to="-182653"/>
	<trip id="veh-155" type="veh_passenger" depart="102" departLane="best" from="-182707" to="-182653"/>
	<trip id="veh-156" type="veh_passenger" depart="102" departLane="best" from="-182707" to="177513127#0"/>
	<trip id="veh-157" type="veh_passenger" depart="103" departLane="best" from="317217122#0" to="177513127#0"/>
	<trip id="veh-158" type="veh_passenger" depart="106" departLane="best" from="317217122#0" to="177513127#0"/>
	<trip id="veh-159" type="veh_passenger" depart="106" departLane="best" from="-182707" to="-182653"/>
	<trip id="veh-160" type="veh_passenger" depart="108" departLane="best" from="-182707" to="177513127#0"/>
	<trip id="veh-161" type="veh_passenger" depart="108" departLane="best" from="-182559" to="-182723"/>
	<trip id="veh-162" type="veh_passenger" depart="109" departLane="best" from="-183577" to="317209213"/>
	<trip id="veh-163" type="veh_passenger" depart="110" departLane="best" from="-183577" to="317209213"/>
	<trip id="veh-164" type="veh_passenger" depart="112" departLane="best" from="-182707" to="177513127#0"/>
	<trip id="veh-165" type="veh_passenger" depart="114" departLane="best" from="-182559" to="-182723"/>
	<trip id="veh-166" type="veh_passenger" depart="115" departLane="best" from="-182707" to="-182653"/>
	<trip id="veh-167" type="veh_passenger" depart="116" departLane="best" from="-183577" to="-182723"/>
	<trip id="veh-168" type="veh_passenger" depart="116" departLane="best" from="-182707" to="-182653"/>
	<trip id="veh-169" type="veh_passenger" depart="117" departLane="best" from="317217122#0" to="-182723"/>
	<trip id="veh-170" type="veh_passenger" depart="117" departLane="best" from="-183577" to="-182723"/>
	<trip id="veh-171" type="veh_passenger" depart="119" departLane="best" from="-183577" to="317209213"/>
	<trip id="veh-172" type="veh_passenger" depart="119" departLane="best" from="-182707" to="-182653"/>
	<trip id="veh-173" type="veh_passenger" depart="120" departLane="best" from="-183577" to="317209213"/>
	<trip id="veh-174" type="veh_passenger" depart="120" departLane="best" from="-182559" to="-182723"/>
	<trip id="veh-175" type="veh_passenger" depart="120" departLane="best" from="-182559" to="177513127#0"/>
	<trip id="veh-176" type="veh_passenger" depart="122" departLane="best" from="-183577" to="317209213"/>
	<trip id="veh-177" type="veh_passenger" depart="122" departLane="best" from="-182707" to="-182653"/>
	<trip id="veh-178" type="veh_passenger" depart="122" departLane="best" from="-182707" to="317209213"/>
	<trip id="veh-179" type="veh_passenger" depart="122" departLane="best" from="-182707" to="177513127#0"/>
	<trip id="veh-180" type="veh_passenger" depart="123" departLane="best" from="317217122#0" to="177513127#0"/>
	<trip id="veh-181" type="veh_passenger" depart="123" departLane="best" from="-182707" to="177513127#0"/>
	<trip id="veh-182" type="veh_passenger" depart="123" departLane="best" from="-182559" to="-182723"/>
	<trip id="veh-183" type="veh_passenger" depart="124" departLane="best" from="317217122#0" to="177513127#0"/>
	<trip id="veh-184" type="veh_passenger" depart="124" departLane="best" from="-183577" to="317209213"/>
	<trip id="veh-185" type="veh_passenger" depart="124" departLane="best" from="-183577" to="-182723"/>
	<trip id="veh-186" type="veh_passenger" depart="125" departLane="best" from="317217122#0" to="177513127#0"/>
	<trip id="veh-187" type="veh_passenger" depart="125" departLane="best" from="-183577" to="317209213"/>
	<trip id="veh-188" type="veh_passenger" depart="128" departLane="best" from="-182707" to="-182653"/>
	<trip id="veh-189" type="veh_passenger" depart="129" departLane="best" from="-183577" to="317209213"/>
	<trip id="veh-190" type="veh_passenger" depart="131" departLane="best" from="317217122#0" to="177513127#0"/>
	<trip id="veh-191" type="veh_passenger" depart="131" departLane="best" from="-183577" to="-182723"/>
	<trip id="veh-192" type="veh_passenger" depart="132" departLane="best" from="317217122#0" to="177513127#0"/>
	<trip id="veh-193" type="veh_passenger" depart="132" departLane="best" from="-182707" to="-182653"/>
	<trip id="veh-194" type="veh_passenger" depart="132" departLane="best" from="-182707" to="177513127#0"/>
	<trip id="veh-195" type="veh_passenger" depart="132" departLane="best" from="-182559" to="177513127#0"/>
	<trip id="veh-196" type="veh_passenger" depart="133" departLane="best" from="-183577" to="317209213"/>
	<trip id="veh-197" type="veh_passenger" depart="134" departLane="best" from="-182707" to="-182653"/>
	<trip id="veh-198" type="veh_passenger" depart="134" departLane="best" from="-182707" to="317209213"/>
	<trip id="veh-199" type="veh_passenger" depart="135" departLane="best" from="317217122#0" to="177513127#0"/>
	<trip id="veh-200" type="veh_passenger" depart="135" departLane="best" from="-182707" to="-182653"/>
	<trip id="veh-201" type="veh_passenger" depart="135" departLane="best" from="-182559" to="-182723"/>
	<trip id="veh-202" type="veh_passenger" depart="136" departLane="best" from="-183577" to="317209213"/>
	<trip id="veh-203" type="veh_passenger" depart="136" departLane="best" from="-182559" to="-182723"/>
	<trip id="veh-204" type="veh_passenger" depart="138" departLane="best" from="-183577" to="-182723"/>
	<trip id="veh-205" type="veh_passenger" depart="138" departLane="best" from="-182559" to="-182723"/>
	<trip id="veh-206" type="veh_passenger" depart="138" departLane="best" from="-182559" to="317209213"/>
	<trip id="veh-207" type="veh_passenger" depart="139" departLane="best" from="317217122#0" to="177513127#0"/>
	<trip id="veh-208" type="veh_passenger" depart="139" departLane="best" from="-183577" to="-182723"/>
	<trip id="veh-209" type="veh_passenger" depart="139" departLane="best" from="-182707" to="-182653"/>
	<trip id="veh-210" type="veh_passenger" depart="139" departLane="best" from="-182559" to="177513127#0"/>
	<trip id="veh-211" type="veh_passenger" depart="140" departLane="best" from="-182707" to="-182653"/>
	<trip id="veh-212" type="veh_passenger" depart="140" departLane="best" from="-182559" to="-182723"/>
	<trip id="veh-213" type="veh_passenger" depart="142" departLane="best" from="317217122#0" to="177513127#0"/>
	<trip id="veh-214" type="veh_passenger" depart="142" departLane="best" from="-182707" to="-182653"/>
	<trip id="veh-215" type="veh_passenger" depart="142" departLane="best" from="-182559" to="-182723"/>
	<trip id="veh-216" type="veh_passenger" depart="144" departLane="best" from="-182559" to="177513127#0"/>
	<trip id="veh-217" type="veh_passenger" depart="145" departLane="best" from="-182707" to="177513127#0"/>
	<trip id="veh-218" type="veh_passenger" depart="146" departLane="best" from="-183577" to="-182723"/>
	<trip id="veh-219" type="veh_passenger" depart="146" departLane="best" from="-182707" to="177513127#0"/>
	<trip id="veh-220" type="veh_passenger" depart="146" departLane="best" from="-182559" to="-182723"/>
	<trip id="veh-221" type="veh_passenger" depart="148" departLane="best" from="-183577" to="317209213"/>
	<trip id="veh-222" type="veh_passenger" depart="149" departLane="best" from="317217122#0" to="177513127#0"/>
	<trip id="veh-223" type="veh_passenger" depart="150" departLane="best" from="-183577" to="317209213"/>
	<trip id="veh-224" type="veh_passenger" depart="150" departLane="best" from="-183577" to="-182723"/>
	<trip id="veh-225" type="veh_passenger" depart="150" departLane="best" from="-182707" to="-182653"/>
	<trip id="veh-226" type="veh_passenger" depart="150" departLane="best" from="-182559" to="-182723"/>
	<trip id="veh-227" type="veh_passenger" depart="151" departLane="best" from="-182707" to="-182653"/>
	<trip id="veh-228" type="veh_passenger" depart="151" departLane="best" from="-182707" to="177513127#0"/>
	<trip id="veh-229" type="veh_passenger" depart="152" departLane="best" from="-183577" to="317209213"/>
	<trip id="veh-230" type="veh_passenger" depart="152" departLane="best" from="-183577" to="-182653"/>
	<trip id="veh-231" type="veh_passenger" depart="152" departLane="best" from="-182707" to="-182653"/>
	<trip id="veh-232" type="veh_passenger" depart="153" departLane="best" from="317217122#0" to="177513127#0"/>
	<trip id="veh-233" type="veh_passenger" depart="153" departLane="best" from="-183577" to="-182653"/>
	<trip id="veh-234" type="veh_passenger" depart="154" departLane="best" from="-183577" to="317209213"/>
	<trip id="veh-235" type="veh_passenger" depart="154" departLane="best" from="-182559" to="177513127#0"/>
	<trip id="veh-236" type="veh_passenger" depart="156" departLane="best" from="-182707" to="-182653"/>
	<trip id="veh-237" type="veh_passenger" depart="157" departLane="best" from="-183577" to="317209213"/>
	<trip id="veh-238" type="veh_passenger" depart="158" departLane="best" from="317217122#0" to="177513127#0"/>
	<trip id="veh-239" type="veh_passenger" depart="158" departLane="best" from="-182707" to="-182653"/>
	<trip id="veh-240" type="veh_passenger" depart="158" departLane="best" from="-182559" to="-182723"/>
	<trip id="veh-241" type="veh_passenger" depart="158" departLane="best" from="-182559" to="-182653"/>
	<trip id="veh-242" type="veh_passenger" depart="159" departLane="best" from="-182559" to="-182723"/>
	<trip id="veh-243" type="veh_passenger" depart="160" departLane="best" from="317217122#0" to="177513127#0"/>
	<trip id="veh-244" type="veh_passenger" depart="160" departLane="best" from="317217122#0" to="317209213"/>
	<trip id="veh-245" type="veh_passenger" depart="160" departLane="best" from="-182707" to="-182653"/>
	<trip id="veh-246" type="veh_passenger" depart="160" departLane="best" from="-182559" to="177513127#0"/>
	<trip id="veh-247" type="veh_passenger" depart="161" departLane="best" from="-183577" to="317209213"/>
	<trip id="veh-248" type="veh_passenger" depart="162" departLane="best" from="317217122#0" to="177513127#0"/>
	<trip id="veh-249" type="veh_passenger" depart="162" departLane="best" from="-183577" to="317209213"/>
	<trip id="veh-250" type="veh_passenger" depart="163" departLane="best" from="-182707" to="177513127#0"/>
	<trip id="veh-251" type="veh_passenger" depart="164" departLane="best" from="-182559" to="317209213"/>
	<trip id="veh-252" type="veh_passenger" depart="164" departLane="best" from="-182559" to="177513127#0"/>
	<trip id="veh-253" type="veh_passenger" depart="165" departLane="best" from="317217122#0" to="177513127#0"/>
	<trip id="veh-254" type="veh_passenger" depart="165" departLane="best" from="-182707" to="-182653"/>
	<trip id="veh-255" type="veh_passenger" depart="166" departLane="best" from="-182707" to="177513127#0"/>
	<trip id="veh-256" type="veh_passenger" depart="167" departLane="best" from="-183577" to="317209213"/>
	<trip id="veh-257" type="veh_passenger" depart="167" departLane="best" from="-182707" to="177513127#0"/>
	<trip id="veh-258" type="veh_passenger" depart="168" departLane="best" from="-182559" to="-182723"/>
	<trip id="veh-259" type="veh_passenger" depart="171" departLane="best" from="317217122#0" to="177513127#0"/>
	<trip id="veh-260" type="veh_passenger" depart="171" departLane="best" from="-182707" to="-182653"/>
	<trip id="veh-261" type="veh_passenger" depart="171" departLane="best" from="-182559" to="-182723"/>
	<trip id="veh-262" type="veh_passenger" depart="172" departLane="best" from="317217122#0" to="317209213"/>
	<trip id="veh-263" type="veh_passenger" depart="173" departLane="best" from="-183577" to="-182723"/>
	<trip id="veh-264" type="veh_passenger" depart="175" departLane="best" from="-182707" to="177513127#0"/>
	<trip id="veh-265" type="veh_passenger" depart="176" departLane="best" from="317217122#0" to="-182653"/>
	<trip id="veh-266" type="veh_passenger" depart="176" departLane="best" from="-182707" to="-182653"/>
	<trip id="veh-267" type="veh_passenger" depart="176" departLane="best" from="-182707" to="317209213"/>
	<trip id="veh-268" type="veh_passenger" depart="176" departLane="best" from="-182559" to="-182723"/>
	<trip id="veh-269" type="veh_passenger" depart="177" departLane="best" from="-183577" to="317209213"/>
	<trip id="veh-270" type="veh_passenger" depart="177" departLane="best" from="-182707" to="-182653"/>
	<trip id="veh-271" type="veh_passenger" depart="177" departLane="best" from="-182559" to="-182723"/>
	<trip id="veh-272" type="veh_passenger" depart="178" departLane="best" from="-183577" to="317209213"/>
	<trip id="veh-273" type="veh_passenger" depart="180" departLane="best" from="317217122#0" to="177513127#0"/>
	<trip id="veh-274" type="veh_passenger" depart="181" departLane="best" from="317217122#0" to="177513127#0"/>
	<trip id="veh-275" type="veh_passenger" depart="181" departLane="best" from="-182707" to="-182653"/>
	<trip id="veh-276" type="veh_passenger" depart="182" departLane="best" from="-182707" to="-182653"/>
	<trip id="veh-277" type="veh_passenger" depart="182" departLane="best" from="-182559" to="-182723"/>
	<trip id="veh-278" type="veh_passenger" depart="183" departLane="best" from="-183577" to="317209213"/>
	<trip id="veh-279" type="veh_passenger" depart="184" departLane="best" from="317217122#0" to="177513127#0"/>
	<trip id="veh-280" type="veh_passenger" depart="185" departLane="best" from="317217122#0" to="177513127#0"/>
	<trip id="veh-281" type="veh_passenger" depart="186" departLane="best" from="317217122#0" to="177513127#0"/>
	<trip id="veh-282" type="veh_passenger" depart="186" departLane="best" from="-183577" to="317209213"/>
	<trip id="veh-283" type="veh_passenger" depart="186" departLane="best" from="-182559" to="177513127#0"/>
	<trip id="veh-284" type="veh_passenger" depart="187" departLane="best" from="-183577" to="-182723"/>
	<trip id="veh-285" type="veh_passenger" depart="187" departLane="best" from="-182559" to="-182723"/>
	<trip id="veh-286" type="veh_passenger" depart="189" departLane="best" from="317217122#0" to="177513127#0"/>
	<trip id="veh-287" type="veh_passenger" depart="189" departLane="best" from="-182707" to="-182653"/>